#\#CIF_2.0
data_CELSLC

# Crystal data
_pd_phase_name                         'Super Cell'
_cell_length_a                         20.000000
_cell_length_b                         20.000000
_cell_length_c                         75.000000
_cell_angle_alpha                      90.0000
_cell_angle_beta                       90.0000
_cell_angle_gamma                      90.0000
_symmetry_space_group_name_H-M_alt     'P 1'
_symmetry_Int_Tables_number            1

# Symmetry operations
loop_
    _space_group_symop_id
    _space_group_symop_operation_xyz
    1    'x,y,z'

# Atomic types
loop_
    _atom_site_type_symbol
    _atom_type_oxidation_number
    Ce4+  4.0000
    O2-  -2.0000

# Atomic sites
loop_
    _atom_site_label
    _atom_site_type_symbol
    _atom_site_occupancy
    _atom_site_fract_x
    _atom_site_fract_y
    _atom_site_fract_z
    _atom_site_thermal_displace_type
    _atom_site_U_iso_or_equiv
    Ce1  Ce4+  1.0000  0.000000  0.000000  0.000000  Uiso  0.001267
    Ce1  Ce4+  1.0000  0.270580  0.000000  0.000000  Uiso  0.001267
    Ce1  Ce4+  1.0000  0.541160  0.000000  0.000000  Uiso  0.001267
    Ce1  Ce4+  1.0000  0.811740  0.000000  0.000000  Uiso  0.001267
    Ce1  Ce4+  1.0000  0.000000  0.270580  0.000000  Uiso  0.001267
    Ce1  Ce4+  1.0000  0.270580  0.270580  0.000000  Uiso  0.001267
    Ce1  Ce4+  1.0000  0.541160  0.270580  0.000000  Uiso  0.001267
    Ce1  Ce4+  1.0000  0.811740  0.270580  0.000000  Uiso  0.001267
    Ce1  Ce4+  1.0000  0.000000  0.541160  0.000000  Uiso  0.001267
    Ce1  Ce4+  1.0000  0.270580  0.541160  0.000000  Uiso  0.001267
    Ce1  Ce4+  1.0000  0.541160  0.541160  0.000000  Uiso  0.001267
    Ce1  Ce4+  1.0000  0.811740  0.541160  0.000000  Uiso  0.001267
    Ce1  Ce4+  1.0000  0.000000  0.811740  0.000000  Uiso  0.001267
    Ce1  Ce4+  1.0000  0.270580  0.811740  0.000000  Uiso  0.001267
    Ce1  Ce4+  1.0000  0.541160  0.811740  0.000000  Uiso  0.001267
    Ce1  Ce4+  1.0000  0.811740  0.811740  0.000000  Uiso  0.001267
    Ce1  Ce4+  1.0000  0.000000  0.000000  0.072150  Uiso  0.001267
    Ce1  Ce4+  1.0000  0.270580  0.000000  0.072150  Uiso  0.001267
    Ce1  Ce4+  1.0000  0.541160  0.000000  0.072150  Uiso  0.001267
    Ce1  Ce4+  1.0000  0.811740  0.000000  0.072150  Uiso  0.001267
    Ce1  Ce4+  1.0000  0.000000  0.270580  0.072150  Uiso  0.001267
    Ce1  Ce4+  1.0000  0.270580  0.270580  0.072150  Uiso  0.001267
    Ce1  Ce4+  1.0000  0.541160  0.270580  0.072150  Uiso  0.001267
    Ce1  Ce4+  1.0000  0.811740  0.270580  0.072150  Uiso  0.001267
    Ce1  Ce4+  1.0000  0.000000  0.541160  0.072150  Uiso  0.001267
    Ce1  Ce4+  1.0000  0.270580  0.541160  0.072150  Uiso  0.001267
    Ce1  Ce4+  1.0000  0.541160  0.541160  0.072150  Uiso  0.001267
    Ce1  Ce4+  1.0000  0.811740  0.541160  0.072150  Uiso  0.001267
    Ce1  Ce4+  1.0000  0.000000  0.811740  0.072150  Uiso  0.001267
    Ce1  Ce4+  1.0000  0.270580  0.811740  0.072150  Uiso  0.001267
    Ce1  Ce4+  1.0000  0.541160  0.811740  0.072150  Uiso  0.001267
    Ce1  Ce4+  1.0000  0.811740  0.811740  0.072150  Uiso  0.001267
    Ce1  Ce4+  1.0000  0.000000  0.000000  0.144310  Uiso  0.001267
    Ce1  Ce4+  1.0000  0.270580  0.000000  0.144310  Uiso  0.001267
    Ce1  Ce4+  1.0000  0.541160  0.000000  0.144310  Uiso  0.001267
    Ce1  Ce4+  1.0000  0.811740  0.000000  0.144310  Uiso  0.001267
    Ce1  Ce4+  1.0000  0.000000  0.270580  0.144310  Uiso  0.001267
    Ce1  Ce4+  1.0000  0.270580  0.270580  0.144310  Uiso  0.001267
    Ce1  Ce4+  1.0000  0.541160  0.270580  0.144310  Uiso  0.001267
    Ce1  Ce4+  1.0000  0.811740  0.270580  0.144310  Uiso  0.001267
    Ce1  Ce4+  1.0000  0.000000  0.541160  0.144310  Uiso  0.001267
    Ce1  Ce4+  1.0000  0.270580  0.541160  0.144310  Uiso  0.001267
    Ce1  Ce4+  1.0000  0.541160  0.541160  0.144310  Uiso  0.001267
    Ce1  Ce4+  1.0000  0.811740  0.541160  0.144310  Uiso  0.001267
    Ce1  Ce4+  1.0000  0.000000  0.811740  0.144310  Uiso  0.001267
    Ce1  Ce4+  1.0000  0.270580  0.811740  0.144310  Uiso  0.001267
    Ce1  Ce4+  1.0000  0.541160  0.811740  0.144310  Uiso  0.001267
    Ce1  Ce4+  1.0000  0.811740  0.811740  0.144310  Uiso  0.001267
    Ce1  Ce4+  1.0000  0.000000  0.000000  0.216460  Uiso  0.001267
    Ce1  Ce4+  1.0000  0.270580  0.000000  0.216460  Uiso  0.001267
    Ce1  Ce4+  1.0000  0.541160  0.000000  0.216460  Uiso  0.001267
    Ce1  Ce4+  1.0000  0.811740  0.000000  0.216460  Uiso  0.001267
    Ce1  Ce4+  1.0000  0.000000  0.270580  0.216460  Uiso  0.001267
    Ce1  Ce4+  1.0000  0.270580  0.270580  0.216460  Uiso  0.001267
    Ce1  Ce4+  1.0000  0.541160  0.270580  0.216460  Uiso  0.001267
    Ce1  Ce4+  1.0000  0.811740  0.270580  0.216460  Uiso  0.001267
    Ce1  Ce4+  1.0000  0.000000  0.541160  0.216460  Uiso  0.001267
    Ce1  Ce4+  1.0000  0.270580  0.541160  0.216460  Uiso  0.001267
    Ce1  Ce4+  1.0000  0.541160  0.541160  0.216460  Uiso  0.001267
    Ce1  Ce4+  1.0000  0.811740  0.541160  0.216460  Uiso  0.001267
    Ce1  Ce4+  1.0000  0.000000  0.811740  0.216460  Uiso  0.001267
    Ce1  Ce4+  1.0000  0.270580  0.811740  0.216460  Uiso  0.001267
    Ce1  Ce4+  1.0000  0.541160  0.811740  0.216460  Uiso  0.001267
    Ce1  Ce4+  1.0000  0.811740  0.811740  0.216460  Uiso  0.001267
    Ce1  Ce4+  1.0000  0.000000  0.000000  0.288620  Uiso  0.001267
    Ce1  Ce4+  1.0000  0.270580  0.000000  0.288620  Uiso  0.001267
    Ce1  Ce4+  1.0000  0.541160  0.000000  0.288620  Uiso  0.001267
    Ce1  Ce4+  1.0000  0.811740  0.000000  0.288620  Uiso  0.001267
    Ce1  Ce4+  1.0000  0.000000  0.270580  0.288620  Uiso  0.001267
    Ce1  Ce4+  1.0000  0.270580  0.270580  0.288620  Uiso  0.001267
    Ce1  Ce4+  1.0000  0.541160  0.270580  0.288620  Uiso  0.001267
    Ce1  Ce4+  1.0000  0.811740  0.270580  0.288620  Uiso  0.001267
    Ce1  Ce4+  1.0000  0.000000  0.541160  0.288620  Uiso  0.001267
    Ce1  Ce4+  1.0000  0.270580  0.541160  0.288620  Uiso  0.001267
    Ce1  Ce4+  1.0000  0.541160  0.541160  0.288620  Uiso  0.001267
    Ce1  Ce4+  1.0000  0.811740  0.541160  0.288620  Uiso  0.001267
    Ce1  Ce4+  1.0000  0.000000  0.811740  0.288620  Uiso  0.001267
    Ce1  Ce4+  1.0000  0.270580  0.811740  0.288620  Uiso  0.001267
    Ce1  Ce4+  1.0000  0.541160  0.811740  0.288620  Uiso  0.001267
    Ce1  Ce4+  1.0000  0.811740  0.811740  0.288620  Uiso  0.001267
    Ce1  Ce4+  1.0000  0.000000  0.000000  0.360770  Uiso  0.001267
    Ce1  Ce4+  1.0000  0.270580  0.000000  0.360770  Uiso  0.001267
    Ce1  Ce4+  1.0000  0.541160  0.000000  0.360770  Uiso  0.001267
    Ce1  Ce4+  1.0000  0.811740  0.000000  0.360770  Uiso  0.001267
    Ce1  Ce4+  1.0000  0.000000  0.270580  0.360770  Uiso  0.001267
    Ce1  Ce4+  1.0000  0.270580  0.270580  0.360770  Uiso  0.001267
    Ce1  Ce4+  1.0000  0.541160  0.270580  0.360770  Uiso  0.001267
    Ce1  Ce4+  1.0000  0.811740  0.270580  0.360770  Uiso  0.001267
    Ce1  Ce4+  1.0000  0.000000  0.541160  0.360770  Uiso  0.001267
    Ce1  Ce4+  1.0000  0.270580  0.541160  0.360770  Uiso  0.001267
    Ce1  Ce4+  1.0000  0.541160  0.541160  0.360770  Uiso  0.001267
    Ce1  Ce4+  1.0000  0.811740  0.541160  0.360770  Uiso  0.001267
    Ce1  Ce4+  1.0000  0.000000  0.811740  0.360770  Uiso  0.001267
    Ce1  Ce4+  1.0000  0.270580  0.811740  0.360770  Uiso  0.001267
    Ce1  Ce4+  1.0000  0.541160  0.811740  0.360770  Uiso  0.001267
    Ce1  Ce4+  1.0000  0.811740  0.811740  0.360770  Uiso  0.001267
    Ce1  Ce4+  1.0000  0.000000  0.000000  0.432930  Uiso  0.001267
    Ce1  Ce4+  1.0000  0.270580  0.000000  0.432930  Uiso  0.001267
    Ce1  Ce4+  1.0000  0.541160  0.000000  0.432930  Uiso  0.001267
    Ce1  Ce4+  1.0000  0.811740  0.000000  0.432930  Uiso  0.001267
    Ce1  Ce4+  1.0000  0.000000  0.270580  0.432930  Uiso  0.001267
    Ce1  Ce4+  1.0000  0.270580  0.270580  0.432930  Uiso  0.001267
    Ce1  Ce4+  1.0000  0.541160  0.270580  0.432930  Uiso  0.001267
    Ce1  Ce4+  1.0000  0.811740  0.270580  0.432930  Uiso  0.001267
    Ce1  Ce4+  1.0000  0.000000  0.541160  0.432930  Uiso  0.001267
    Ce1  Ce4+  1.0000  0.270580  0.541160  0.432930  Uiso  0.001267
    Ce1  Ce4+  1.0000  0.541160  0.541160  0.432930  Uiso  0.001267
    Ce1  Ce4+  1.0000  0.811740  0.541160  0.432930  Uiso  0.001267
    Ce1  Ce4+  1.0000  0.000000  0.811740  0.432930  Uiso  0.001267
    Ce1  Ce4+  1.0000  0.270580  0.811740  0.432930  Uiso  0.001267
    Ce1  Ce4+  1.0000  0.541160  0.811740  0.432930  Uiso  0.001267
    Ce1  Ce4+  1.0000  0.811740  0.811740  0.432930  Uiso  0.001267
    Ce1  Ce4+  1.0000  0.000000  0.000000  0.505080  Uiso  0.001267
    Ce1  Ce4+  1.0000  0.270580  0.000000  0.505080  Uiso  0.001267
    Ce1  Ce4+  1.0000  0.541160  0.000000  0.505080  Uiso  0.001267
    Ce1  Ce4+  1.0000  0.811740  0.000000  0.505080  Uiso  0.001267
    Ce1  Ce4+  1.0000  0.000000  0.270580  0.505080  Uiso  0.001267
    Ce1  Ce4+  1.0000  0.270580  0.270580  0.505080  Uiso  0.001267
    Ce1  Ce4+  1.0000  0.541160  0.270580  0.505080  Uiso  0.001267
    Ce1  Ce4+  1.0000  0.811740  0.270580  0.505080  Uiso  0.001267
    Ce1  Ce4+  1.0000  0.000000  0.541160  0.505080  Uiso  0.001267
    Ce1  Ce4+  1.0000  0.270580  0.541160  0.505080  Uiso  0.001267
    Ce1  Ce4+  1.0000  0.541160  0.541160  0.505080  Uiso  0.001267
    Ce1  Ce4+  1.0000  0.811740  0.541160  0.505080  Uiso  0.001267
    Ce1  Ce4+  1.0000  0.000000  0.811740  0.505080  Uiso  0.001267
    Ce1  Ce4+  1.0000  0.270580  0.811740  0.505080  Uiso  0.001267
    Ce1  Ce4+  1.0000  0.541160  0.811740  0.505080  Uiso  0.001267
    Ce1  Ce4+  1.0000  0.811740  0.811740  0.505080  Uiso  0.001267
    Ce1  Ce4+  1.0000  0.000000  0.000000  0.577240  Uiso  0.001267
    Ce1  Ce4+  1.0000  0.270580  0.000000  0.577240  Uiso  0.001267
    Ce1  Ce4+  1.0000  0.541160  0.000000  0.577240  Uiso  0.001267
    Ce1  Ce4+  1.0000  0.811740  0.000000  0.577240  Uiso  0.001267
    Ce1  Ce4+  1.0000  0.000000  0.270580  0.577240  Uiso  0.001267
    Ce1  Ce4+  1.0000  0.270580  0.270580  0.577240  Uiso  0.001267
    Ce1  Ce4+  1.0000  0.541160  0.270580  0.577240  Uiso  0.001267
    Ce1  Ce4+  1.0000  0.811740  0.270580  0.577240  Uiso  0.001267
    Ce1  Ce4+  1.0000  0.000000  0.541160  0.577240  Uiso  0.001267
    Ce1  Ce4+  1.0000  0.270580  0.541160  0.577240  Uiso  0.001267
    Ce1  Ce4+  1.0000  0.541160  0.541160  0.577240  Uiso  0.001267
    Ce1  Ce4+  1.0000  0.811740  0.541160  0.577240  Uiso  0.001267
    Ce1  Ce4+  1.0000  0.000000  0.811740  0.577240  Uiso  0.001267
    Ce1  Ce4+  1.0000  0.270580  0.811740  0.577240  Uiso  0.001267
    Ce1  Ce4+  1.0000  0.541160  0.811740  0.577240  Uiso  0.001267
    Ce1  Ce4+  1.0000  0.811740  0.811740  0.577240  Uiso  0.001267
    Ce1  Ce4+  1.0000  0.000000  0.000000  0.649390  Uiso  0.001267
    Ce1  Ce4+  1.0000  0.270580  0.000000  0.649390  Uiso  0.001267
    Ce1  Ce4+  1.0000  0.541160  0.000000  0.649390  Uiso  0.001267
    Ce1  Ce4+  1.0000  0.811740  0.000000  0.649390  Uiso  0.001267
    Ce1  Ce4+  1.0000  0.000000  0.270580  0.649390  Uiso  0.001267
    Ce1  Ce4+  1.0000  0.270580  0.270580  0.649390  Uiso  0.001267
    Ce1  Ce4+  1.0000  0.541160  0.270580  0.649390  Uiso  0.001267
    Ce1  Ce4+  1.0000  0.811740  0.270580  0.649390  Uiso  0.001267
    Ce1  Ce4+  1.0000  0.000000  0.541160  0.649390  Uiso  0.001267
    Ce1  Ce4+  1.0000  0.270580  0.541160  0.649390  Uiso  0.001267
    Ce1  Ce4+  1.0000  0.541160  0.541160  0.649390  Uiso  0.001267
    Ce1  Ce4+  1.0000  0.811740  0.541160  0.649390  Uiso  0.001267
    Ce1  Ce4+  1.0000  0.000000  0.811740  0.649390  Uiso  0.001267
    Ce1  Ce4+  1.0000  0.270580  0.811740  0.649390  Uiso  0.001267
    Ce1  Ce4+  1.0000  0.541160  0.811740  0.649390  Uiso  0.001267
    Ce1  Ce4+  1.0000  0.811740  0.811740  0.649390  Uiso  0.001267
    Ce1  Ce4+  1.0000  0.000000  0.000000  0.721550  Uiso  0.001267
    Ce1  Ce4+  1.0000  0.270580  0.000000  0.721550  Uiso  0.001267
    Ce1  Ce4+  1.0000  0.541160  0.000000  0.721550  Uiso  0.001267
    Ce1  Ce4+  1.0000  0.811740  0.000000  0.721550  Uiso  0.001267
    Ce1  Ce4+  1.0000  0.000000  0.270580  0.721550  Uiso  0.001267
    Ce1  Ce4+  1.0000  0.270580  0.270580  0.721550  Uiso  0.001267
    Ce1  Ce4+  1.0000  0.541160  0.270580  0.721550  Uiso  0.001267
    Ce1  Ce4+  1.0000  0.811740  0.270580  0.721550  Uiso  0.001267
    Ce1  Ce4+  1.0000  0.000000  0.541160  0.721550  Uiso  0.001267
    Ce1  Ce4+  1.0000  0.270580  0.541160  0.721550  Uiso  0.001267
    Ce1  Ce4+  1.0000  0.541160  0.541160  0.721550  Uiso  0.001267
    Ce1  Ce4+  1.0000  0.811740  0.541160  0.721550  Uiso  0.001267
    Ce1  Ce4+  1.0000  0.000000  0.811740  0.721550  Uiso  0.001267
    Ce1  Ce4+  1.0000  0.270580  0.811740  0.721550  Uiso  0.001267
    Ce1  Ce4+  1.0000  0.541160  0.811740  0.721550  Uiso  0.001267
    Ce1  Ce4+  1.0000  0.811740  0.811740  0.721550  Uiso  0.001267
    Ce1  Ce4+  1.0000  0.000000  0.000000  0.793700  Uiso  0.001267
    Ce1  Ce4+  1.0000  0.270580  0.000000  0.793700  Uiso  0.001267
    Ce1  Ce4+  1.0000  0.541160  0.000000  0.793700  Uiso  0.001267
    Ce1  Ce4+  1.0000  0.811740  0.000000  0.793700  Uiso  0.001267
    Ce1  Ce4+  1.0000  0.000000  0.270580  0.793700  Uiso  0.001267
    Ce1  Ce4+  1.0000  0.270580  0.270580  0.793700  Uiso  0.001267
    Ce1  Ce4+  1.0000  0.541160  0.270580  0.793700  Uiso  0.001267
    Ce1  Ce4+  1.0000  0.811740  0.270580  0.793700  Uiso  0.001267
    Ce1  Ce4+  1.0000  0.000000  0.541160  0.793700  Uiso  0.001267
    Ce1  Ce4+  1.0000  0.270580  0.541160  0.793700  Uiso  0.001267
    Ce1  Ce4+  1.0000  0.541160  0.541160  0.793700  Uiso  0.001267
    Ce1  Ce4+  1.0000  0.811740  0.541160  0.793700  Uiso  0.001267
    Ce1  Ce4+  1.0000  0.000000  0.811740  0.793700  Uiso  0.001267
    Ce1  Ce4+  1.0000  0.270580  0.811740  0.793700  Uiso  0.001267
    Ce1  Ce4+  1.0000  0.541160  0.811740  0.793700  Uiso  0.001267
    Ce1  Ce4+  1.0000  0.811740  0.811740  0.793700  Uiso  0.001267
    Ce1  Ce4+  1.0000  0.000000  0.000000  0.865860  Uiso  0.001267
    Ce1  Ce4+  1.0000  0.270580  0.000000  0.865860  Uiso  0.001267
    Ce1  Ce4+  1.0000  0.541160  0.000000  0.865860  Uiso  0.001267
    Ce1  Ce4+  1.0000  0.811740  0.000000  0.865860  Uiso  0.001267
    Ce1  Ce4+  1.0000  0.000000  0.270580  0.865860  Uiso  0.001267
    Ce1  Ce4+  1.0000  0.270580  0.270580  0.865860  Uiso  0.001267
    Ce1  Ce4+  1.0000  0.541160  0.270580  0.865860  Uiso  0.001267
    Ce1  Ce4+  1.0000  0.811740  0.270580  0.865860  Uiso  0.001267
    Ce1  Ce4+  1.0000  0.000000  0.541160  0.865860  Uiso  0.001267
    Ce1  Ce4+  1.0000  0.270580  0.541160  0.865860  Uiso  0.001267
    Ce1  Ce4+  1.0000  0.541160  0.541160  0.865860  Uiso  0.001267
    Ce1  Ce4+  1.0000  0.811740  0.541160  0.865860  Uiso  0.001267
    Ce1  Ce4+  1.0000  0.000000  0.811740  0.865860  Uiso  0.001267
    Ce1  Ce4+  1.0000  0.270580  0.811740  0.865860  Uiso  0.001267
    Ce1  Ce4+  1.0000  0.541160  0.811740  0.865860  Uiso  0.001267
    Ce1  Ce4+  1.0000  0.811740  0.811740  0.865860  Uiso  0.001267
    Ce1  Ce4+  1.0000  0.000000  0.000000  0.938010  Uiso  0.001267
    Ce1  Ce4+  1.0000  0.270580  0.000000  0.938010  Uiso  0.001267
    Ce1  Ce4+  1.0000  0.541160  0.000000  0.938010  Uiso  0.001267
    Ce1  Ce4+  1.0000  0.811740  0.000000  0.938010  Uiso  0.001267
    Ce1  Ce4+  1.0000  0.000000  0.270580  0.938010  Uiso  0.001267
    Ce1  Ce4+  1.0000  0.270580  0.270580  0.938010  Uiso  0.001267
    Ce1  Ce4+  1.0000  0.541160  0.270580  0.938010  Uiso  0.001267
    Ce1  Ce4+  1.0000  0.811740  0.270580  0.938010  Uiso  0.001267
    Ce1  Ce4+  1.0000  0.000000  0.541160  0.938010  Uiso  0.001267
    Ce1  Ce4+  1.0000  0.270580  0.541160  0.938010  Uiso  0.001267
    Ce1  Ce4+  1.0000  0.541160  0.541160  0.938010  Uiso  0.001267
    Ce1  Ce4+  1.0000  0.811740  0.541160  0.938010  Uiso  0.001267
    Ce1  Ce4+  1.0000  0.000000  0.811740  0.938010  Uiso  0.001267
    Ce1  Ce4+  1.0000  0.270580  0.811740  0.938010  Uiso  0.001267
    Ce1  Ce4+  1.0000  0.541160  0.811740  0.938010  Uiso  0.001267
    Ce1  Ce4+  1.0000  0.811740  0.811740  0.938010  Uiso  0.001267
    O1  O2-  1.0000  0.067650  0.067650  0.018040  Uiso  0.025330
    O1  O2-  1.0000  0.338230  0.067650  0.018040  Uiso  0.025330
    O1  O2-  1.0000  0.608810  0.067650  0.018040  Uiso  0.025330
    O1  O2-  1.0000  0.879390  0.067650  0.018040  Uiso  0.025330
    O1  O2-  1.0000  0.067650  0.338230  0.018040  Uiso  0.025330
    O1  O2-  1.0000  0.338230  0.338230  0.018040  Uiso  0.025330
    O1  O2-  1.0000  0.608810  0.338230  0.018040  Uiso  0.025330
    O1  O2-  1.0000  0.879390  0.338230  0.018040  Uiso  0.025330
    O1  O2-  1.0000  0.067650  0.608810  0.018040  Uiso  0.025330
    O1  O2-  1.0000  0.338230  0.608810  0.018040  Uiso  0.025330
    O1  O2-  1.0000  0.608810  0.608810  0.018040  Uiso  0.025330
    O1  O2-  1.0000  0.879390  0.608810  0.018040  Uiso  0.025330
    O1  O2-  1.0000  0.067650  0.879390  0.018040  Uiso  0.025330
    O1  O2-  1.0000  0.338230  0.879390  0.018040  Uiso  0.025330
    O1  O2-  1.0000  0.608810  0.879390  0.018040  Uiso  0.025330
    O1  O2-  1.0000  0.879390  0.879390  0.018040  Uiso  0.025330
    O1  O2-  1.0000  0.067650  0.067650  0.090190  Uiso  0.025330
    O1  O2-  1.0000  0.338230  0.067650  0.090190  Uiso  0.025330
    O1  O2-  1.0000  0.608810  0.067650  0.090190  Uiso  0.025330
    O1  O2-  1.0000  0.879390  0.067650  0.090190  Uiso  0.025330
    O1  O2-  1.0000  0.067650  0.338230  0.090190  Uiso  0.025330
    O1  O2-  1.0000  0.338230  0.338230  0.090190  Uiso  0.025330
    O1  O2-  1.0000  0.608810  0.338230  0.090190  Uiso  0.025330
    O1  O2-  1.0000  0.879390  0.338230  0.090190  Uiso  0.025330
    O1  O2-  1.0000  0.067650  0.608810  0.090190  Uiso  0.025330
    O1  O2-  1.0000  0.338230  0.608810  0.090190  Uiso  0.025330
    O1  O2-  1.0000  0.608810  0.608810  0.090190  Uiso  0.025330
    O1  O2-  1.0000  0.879390  0.608810  0.090190  Uiso  0.025330
    O1  O2-  1.0000  0.067650  0.879390  0.090190  Uiso  0.025330
    O1  O2-  1.0000  0.338230  0.879390  0.090190  Uiso  0.025330
    O1  O2-  1.0000  0.608810  0.879390  0.090190  Uiso  0.025330
    O1  O2-  1.0000  0.879390  0.879390  0.090190  Uiso  0.025330
    O1  O2-  1.0000  0.067650  0.067650  0.162350  Uiso  0.025330
    O1  O2-  1.0000  0.338230  0.067650  0.162350  Uiso  0.025330
    O1  O2-  1.0000  0.608810  0.067650  0.162350  Uiso  0.025330
    O1  O2-  1.0000  0.879390  0.067650  0.162350  Uiso  0.025330
    O1  O2-  1.0000  0.067650  0.338230  0.162350  Uiso  0.025330
    O1  O2-  1.0000  0.338230  0.338230  0.162350  Uiso  0.025330
    O1  O2-  1.0000  0.608810  0.338230  0.162350  Uiso  0.025330
    O1  O2-  1.0000  0.879390  0.338230  0.162350  Uiso  0.025330
    O1  O2-  1.0000  0.067650  0.608810  0.162350  Uiso  0.025330
    O1  O2-  1.0000  0.338230  0.608810  0.162350  Uiso  0.025330
    O1  O2-  1.0000  0.608810  0.608810  0.162350  Uiso  0.025330
    O1  O2-  1.0000  0.879390  0.608810  0.162350  Uiso  0.025330
    O1  O2-  1.0000  0.067650  0.879390  0.162350  Uiso  0.025330
    O1  O2-  1.0000  0.338230  0.879390  0.162350  Uiso  0.025330
    O1  O2-  1.0000  0.608810  0.879390  0.162350  Uiso  0.025330
    O1  O2-  1.0000  0.879390  0.879390  0.162350  Uiso  0.025330
    O1  O2-  1.0000  0.067650  0.067650  0.234500  Uiso  0.025330
    O1  O2-  1.0000  0.338230  0.067650  0.234500  Uiso  0.025330
    O1  O2-  1.0000  0.608810  0.067650  0.234500  Uiso  0.025330
    O1  O2-  1.0000  0.879390  0.067650  0.234500  Uiso  0.025330
    O1  O2-  1.0000  0.067650  0.338230  0.234500  Uiso  0.025330
    O1  O2-  1.0000  0.338230  0.338230  0.234500  Uiso  0.025330
    O1  O2-  1.0000  0.608810  0.338230  0.234500  Uiso  0.025330
    O1  O2-  1.0000  0.879390  0.338230  0.234500  Uiso  0.025330
    O1  O2-  1.0000  0.067650  0.608810  0.234500  Uiso  0.025330
    O1  O2-  1.0000  0.338230  0.608810  0.234500  Uiso  0.025330
    O1  O2-  1.0000  0.608810  0.608810  0.234500  Uiso  0.025330
    O1  O2-  1.0000  0.879390  0.608810  0.234500  Uiso  0.025330
    O1  O2-  1.0000  0.067650  0.879390  0.234500  Uiso  0.025330
    O1  O2-  1.0000  0.338230  0.879390  0.234500  Uiso  0.025330
    O1  O2-  1.0000  0.608810  0.879390  0.234500  Uiso  0.025330
    O1  O2-  1.0000  0.879390  0.879390  0.234500  Uiso  0.025330
    O1  O2-  1.0000  0.067650  0.067650  0.306660  Uiso  0.025330
    O1  O2-  1.0000  0.338230  0.067650  0.306660  Uiso  0.025330
    O1  O2-  1.0000  0.608810  0.067650  0.306660  Uiso  0.025330
    O1  O2-  1.0000  0.879390  0.067650  0.306660  Uiso  0.025330
    O1  O2-  1.0000  0.067650  0.338230  0.306660  Uiso  0.025330
    O1  O2-  1.0000  0.338230  0.338230  0.306660  Uiso  0.025330
    O1  O2-  1.0000  0.608810  0.338230  0.306660  Uiso  0.025330
    O1  O2-  1.0000  0.879390  0.338230  0.306660  Uiso  0.025330
    O1  O2-  1.0000  0.067650  0.608810  0.306660  Uiso  0.025330
    O1  O2-  1.0000  0.338230  0.608810  0.306660  Uiso  0.025330
    O1  O2-  1.0000  0.608810  0.608810  0.306660  Uiso  0.025330
    O1  O2-  1.0000  0.879390  0.608810  0.306660  Uiso  0.025330
    O1  O2-  1.0000  0.067650  0.879390  0.306660  Uiso  0.025330
    O1  O2-  1.0000  0.338230  0.879390  0.306660  Uiso  0.025330
    O1  O2-  1.0000  0.608810  0.879390  0.306660  Uiso  0.025330
    O1  O2-  1.0000  0.879390  0.879390  0.306660  Uiso  0.025330
    O1  O2-  1.0000  0.067650  0.067650  0.378810  Uiso  0.025330
    O1  O2-  1.0000  0.338230  0.067650  0.378810  Uiso  0.025330
    O1  O2-  1.0000  0.608810  0.067650  0.378810  Uiso  0.025330
    O1  O2-  1.0000  0.879390  0.067650  0.378810  Uiso  0.025330
    O1  O2-  1.0000  0.067650  0.338230  0.378810  Uiso  0.025330
    O1  O2-  1.0000  0.338230  0.338230  0.378810  Uiso  0.025330
    O1  O2-  1.0000  0.608810  0.338230  0.378810  Uiso  0.025330
    O1  O2-  1.0000  0.879390  0.338230  0.378810  Uiso  0.025330
    O1  O2-  1.0000  0.067650  0.608810  0.378810  Uiso  0.025330
    O1  O2-  1.0000  0.338230  0.608810  0.378810  Uiso  0.025330
    O1  O2-  1.0000  0.608810  0.608810  0.378810  Uiso  0.025330
    O1  O2-  1.0000  0.879390  0.608810  0.378810  Uiso  0.025330
    O1  O2-  1.0000  0.067650  0.879390  0.378810  Uiso  0.025330
    O1  O2-  1.0000  0.338230  0.879390  0.378810  Uiso  0.025330
    O1  O2-  1.0000  0.608810  0.879390  0.378810  Uiso  0.025330
    O1  O2-  1.0000  0.879390  0.879390  0.378810  Uiso  0.025330
    O1  O2-  1.0000  0.067650  0.067650  0.450970  Uiso  0.025330
    O1  O2-  1.0000  0.338230  0.067650  0.450970  Uiso  0.025330
    O1  O2-  1.0000  0.608810  0.067650  0.450970  Uiso  0.025330
    O1  O2-  1.0000  0.879390  0.067650  0.450970  Uiso  0.025330
    O1  O2-  1.0000  0.067650  0.338230  0.450970  Uiso  0.025330
    O1  O2-  1.0000  0.338230  0.338230  0.450970  Uiso  0.025330
    O1  O2-  1.0000  0.608810  0.338230  0.450970  Uiso  0.025330
    O1  O2-  1.0000  0.879390  0.338230  0.450970  Uiso  0.025330
    O1  O2-  1.0000  0.067650  0.608810  0.450970  Uiso  0.025330
    O1  O2-  1.0000  0.338230  0.608810  0.450970  Uiso  0.025330
    O1  O2-  1.0000  0.608810  0.608810  0.450970  Uiso  0.025330
    O1  O2-  1.0000  0.879390  0.608810  0.450970  Uiso  0.025330
    O1  O2-  1.0000  0.067650  0.879390  0.450970  Uiso  0.025330
    O1  O2-  1.0000  0.338230  0.879390  0.450970  Uiso  0.025330
    O1  O2-  1.0000  0.608810  0.879390  0.450970  Uiso  0.025330
    O1  O2-  1.0000  0.879390  0.879390  0.450970  Uiso  0.025330
    O1  O2-  1.0000  0.067650  0.067650  0.523120  Uiso  0.025330
    O1  O2-  1.0000  0.338230  0.067650  0.523120  Uiso  0.025330
    O1  O2-  1.0000  0.608810  0.067650  0.523120  Uiso  0.025330
    O1  O2-  1.0000  0.879390  0.067650  0.523120  Uiso  0.025330
    O1  O2-  1.0000  0.067650  0.338230  0.523120  Uiso  0.025330
    O1  O2-  1.0000  0.338230  0.338230  0.523120  Uiso  0.025330
    O1  O2-  1.0000  0.608810  0.338230  0.523120  Uiso  0.025330
    O1  O2-  1.0000  0.879390  0.338230  0.523120  Uiso  0.025330
    O1  O2-  1.0000  0.067650  0.608810  0.523120  Uiso  0.025330
    O1  O2-  1.0000  0.338230  0.608810  0.523120  Uiso  0.025330
    O1  O2-  1.0000  0.608810  0.608810  0.523120  Uiso  0.025330
    O1  O2-  1.0000  0.879390  0.608810  0.523120  Uiso  0.025330
    O1  O2-  1.0000  0.067650  0.879390  0.523120  Uiso  0.025330
    O1  O2-  1.0000  0.338230  0.879390  0.523120  Uiso  0.025330
    O1  O2-  1.0000  0.608810  0.879390  0.523120  Uiso  0.025330
    O1  O2-  1.0000  0.879390  0.879390  0.523120  Uiso  0.025330
    O1  O2-  1.0000  0.067650  0.067650  0.595280  Uiso  0.025330
    O1  O2-  1.0000  0.338230  0.067650  0.595280  Uiso  0.025330
    O1  O2-  1.0000  0.608810  0.067650  0.595280  Uiso  0.025330
    O1  O2-  1.0000  0.879390  0.067650  0.595280  Uiso  0.025330
    O1  O2-  1.0000  0.067650  0.338230  0.595280  Uiso  0.025330
    O1  O2-  1.0000  0.338230  0.338230  0.595280  Uiso  0.025330
    O1  O2-  1.0000  0.608810  0.338230  0.595280  Uiso  0.025330
    O1  O2-  1.0000  0.879390  0.338230  0.595280  Uiso  0.025330
    O1  O2-  1.0000  0.067650  0.608810  0.595280  Uiso  0.025330
    O1  O2-  1.0000  0.338230  0.608810  0.595280  Uiso  0.025330
    O1  O2-  1.0000  0.608810  0.608810  0.595280  Uiso  0.025330
    O1  O2-  1.0000  0.879390  0.608810  0.595280  Uiso  0.025330
    O1  O2-  1.0000  0.067650  0.879390  0.595280  Uiso  0.025330
    O1  O2-  1.0000  0.338230  0.879390  0.595280  Uiso  0.025330
    O1  O2-  1.0000  0.608810  0.879390  0.595280  Uiso  0.025330
    O1  O2-  1.0000  0.879390  0.879390  0.595280  Uiso  0.025330
    O1  O2-  1.0000  0.067650  0.067650  0.667430  Uiso  0.025330
    O1  O2-  1.0000  0.338230  0.067650  0.667430  Uiso  0.025330
    O1  O2-  1.0000  0.608810  0.067650  0.667430  Uiso  0.025330
    O1  O2-  1.0000  0.879390  0.067650  0.667430  Uiso  0.025330
    O1  O2-  1.0000  0.067650  0.338230  0.667430  Uiso  0.025330
    O1  O2-  1.0000  0.338230  0.338230  0.667430  Uiso  0.025330
    O1  O2-  1.0000  0.608810  0.338230  0.667430  Uiso  0.025330
    O1  O2-  1.0000  0.879390  0.338230  0.667430  Uiso  0.025330
    O1  O2-  1.0000  0.067650  0.608810  0.667430  Uiso  0.025330
    O1  O2-  1.0000  0.338230  0.608810  0.667430  Uiso  0.025330
    O1  O2-  1.0000  0.608810  0.608810  0.667430  Uiso  0.025330
    O1  O2-  1.0000  0.879390  0.608810  0.667430  Uiso  0.025330
    O1  O2-  1.0000  0.067650  0.879390  0.667430  Uiso  0.025330
    O1  O2-  1.0000  0.338230  0.879390  0.667430  Uiso  0.025330
    O1  O2-  1.0000  0.608810  0.879390  0.667430  Uiso  0.025330
    O1  O2-  1.0000  0.879390  0.879390  0.667430  Uiso  0.025330
    O1  O2-  1.0000  0.067650  0.067650  0.739590  Uiso  0.025330
    O1  O2-  1.0000  0.338230  0.067650  0.739590  Uiso  0.025330
    O1  O2-  1.0000  0.608810  0.067650  0.739590  Uiso  0.025330
    O1  O2-  1.0000  0.879390  0.067650  0.739590  Uiso  0.025330
    O1  O2-  1.0000  0.067650  0.338230  0.739590  Uiso  0.025330
    O1  O2-  1.0000  0.338230  0.338230  0.739590  Uiso  0.025330
    O1  O2-  1.0000  0.608810  0.338230  0.739590  Uiso  0.025330
    O1  O2-  1.0000  0.879390  0.338230  0.739590  Uiso  0.025330
    O1  O2-  1.0000  0.067650  0.608810  0.739590  Uiso  0.025330
    O1  O2-  1.0000  0.338230  0.608810  0.739590  Uiso  0.025330
    O1  O2-  1.0000  0.608810  0.608810  0.739590  Uiso  0.025330
    O1  O2-  1.0000  0.879390  0.608810  0.739590  Uiso  0.025330
    O1  O2-  1.0000  0.067650  0.879390  0.739590  Uiso  0.025330
    O1  O2-  1.0000  0.338230  0.879390  0.739590  Uiso  0.025330
    O1  O2-  1.0000  0.608810  0.879390  0.739590  Uiso  0.025330
    O1  O2-  1.0000  0.879390  0.879390  0.739590  Uiso  0.025330
    O1  O2-  1.0000  0.067650  0.067650  0.811740  Uiso  0.025330
    O1  O2-  1.0000  0.338230  0.067650  0.811740  Uiso  0.025330
    O1  O2-  1.0000  0.608810  0.067650  0.811740  Uiso  0.025330
    O1  O2-  1.0000  0.879390  0.067650  0.811740  Uiso  0.025330
    O1  O2-  1.0000  0.067650  0.338230  0.811740  Uiso  0.025330
    O1  O2-  1.0000  0.338230  0.338230  0.811740  Uiso  0.025330
    O1  O2-  1.0000  0.608810  0.338230  0.811740  Uiso  0.025330
    O1  O2-  1.0000  0.879390  0.338230  0.811740  Uiso  0.025330
    O1  O2-  1.0000  0.067650  0.608810  0.811740  Uiso  0.025330
    O1  O2-  1.0000  0.338230  0.608810  0.811740  Uiso  0.025330
    O1  O2-  1.0000  0.608810  0.608810  0.811740  Uiso  0.025330
    O1  O2-  1.0000  0.879390  0.608810  0.811740  Uiso  0.025330
    O1  O2-  1.0000  0.067650  0.879390  0.811740  Uiso  0.025330
    O1  O2-  1.0000  0.338230  0.879390  0.811740  Uiso  0.025330
    O1  O2-  1.0000  0.608810  0.879390  0.811740  Uiso  0.025330
    O1  O2-  1.0000  0.879390  0.879390  0.811740  Uiso  0.025330
    O1  O2-  1.0000  0.067650  0.067650  0.883890  Uiso  0.025330
    O1  O2-  1.0000  0.338230  0.067650  0.883890  Uiso  0.025330
    O1  O2-  1.0000  0.608810  0.067650  0.883890  Uiso  0.025330
    O1  O2-  1.0000  0.879390  0.067650  0.883890  Uiso  0.025330
    O1  O2-  1.0000  0.067650  0.338230  0.883890  Uiso  0.025330
    O1  O2-  1.0000  0.338230  0.338230  0.883890  Uiso  0.025330
    O1  O2-  1.0000  0.608810  0.338230  0.883890  Uiso  0.025330
    O1  O2-  1.0000  0.879390  0.338230  0.883890  Uiso  0.025330
    O1  O2-  1.0000  0.067650  0.608810  0.883890  Uiso  0.025330
    O1  O2-  1.0000  0.338230  0.608810  0.883890  Uiso  0.025330
    O1  O2-  1.0000  0.608810  0.608810  0.883890  Uiso  0.025330
    O1  O2-  1.0000  0.879390  0.608810  0.883890  Uiso  0.025330
    O1  O2-  1.0000  0.067650  0.879390  0.883890  Uiso  0.025330
    O1  O2-  1.0000  0.338230  0.879390  0.883890  Uiso  0.025330
    O1  O2-  1.0000  0.608810  0.879390  0.883890  Uiso  0.025330
    O1  O2-  1.0000  0.879390  0.879390  0.883890  Uiso  0.025330
    O1  O2-  1.0000  0.067650  0.067650  0.956050  Uiso  0.025330
    O1  O2-  1.0000  0.338230  0.067650  0.956050  Uiso  0.025330
    O1  O2-  1.0000  0.608810  0.067650  0.956050  Uiso  0.025330
    O1  O2-  1.0000  0.879390  0.067650  0.956050  Uiso  0.025330
    O1  O2-  1.0000  0.067650  0.338230  0.956050  Uiso  0.025330
    O1  O2-  1.0000  0.338230  0.338230  0.956050  Uiso  0.025330
    O1  O2-  1.0000  0.608810  0.338230  0.956050  Uiso  0.025330
    O1  O2-  1.0000  0.879390  0.338230  0.956050  Uiso  0.025330
    O1  O2-  1.0000  0.067650  0.608810  0.956050  Uiso  0.025330
    O1  O2-  1.0000  0.338230  0.608810  0.956050  Uiso  0.025330
    O1  O2-  1.0000  0.608810  0.608810  0.956050  Uiso  0.025330
    O1  O2-  1.0000  0.879390  0.608810  0.956050  Uiso  0.025330
    O1  O2-  1.0000  0.067650  0.879390  0.956050  Uiso  0.025330
    O1  O2-  1.0000  0.338230  0.879390  0.956050  Uiso  0.025330
    O1  O2-  1.0000  0.608810  0.879390  0.956050  Uiso  0.025330
    O1  O2-  1.0000  0.879390  0.879390  0.956050  Uiso  0.025330
    O1  O2-  1.0000  0.067650  0.067650  0.054120  Uiso  0.025330
    O1  O2-  1.0000  0.338230  0.067650  0.054120  Uiso  0.025330
    O1  O2-  1.0000  0.608810  0.067650  0.054120  Uiso  0.025330
    O1  O2-  1.0000  0.879390  0.067650  0.054120  Uiso  0.025330
    O1  O2-  1.0000  0.067650  0.338230  0.054120  Uiso  0.025330
    O1  O2-  1.0000  0.338230  0.338230  0.054120  Uiso  0.025330
    O1  O2-  1.0000  0.608810  0.338230  0.054120  Uiso  0.025330
    O1  O2-  1.0000  0.879390  0.338230  0.054120  Uiso  0.025330
    O1  O2-  1.0000  0.067650  0.608810  0.054120  Uiso  0.025330
    O1  O2-  1.0000  0.338230  0.608810  0.054120  Uiso  0.025330
    O1  O2-  1.0000  0.608810  0.608810  0.054120  Uiso  0.025330
    O1  O2-  1.0000  0.879390  0.608810  0.054120  Uiso  0.025330
    O1  O2-  1.0000  0.067650  0.879390  0.054120  Uiso  0.025330
    O1  O2-  1.0000  0.338230  0.879390  0.054120  Uiso  0.025330
    O1  O2-  1.0000  0.608810  0.879390  0.054120  Uiso  0.025330
    O1  O2-  1.0000  0.879390  0.879390  0.054120  Uiso  0.025330
    O1  O2-  1.0000  0.067650  0.067650  0.126270  Uiso  0.025330
    O1  O2-  1.0000  0.338230  0.067650  0.126270  Uiso  0.025330
    O1  O2-  1.0000  0.608810  0.067650  0.126270  Uiso  0.025330
    O1  O2-  1.0000  0.879390  0.067650  0.126270  Uiso  0.025330
    O1  O2-  1.0000  0.067650  0.338230  0.126270  Uiso  0.025330
    O1  O2-  1.0000  0.338230  0.338230  0.126270  Uiso  0.025330
    O1  O2-  1.0000  0.608810  0.338230  0.126270  Uiso  0.025330
    O1  O2-  1.0000  0.879390  0.338230  0.126270  Uiso  0.025330
    O1  O2-  1.0000  0.067650  0.608810  0.126270  Uiso  0.025330
    O1  O2-  1.0000  0.338230  0.608810  0.126270  Uiso  0.025330
    O1  O2-  1.0000  0.608810  0.608810  0.126270  Uiso  0.025330
    O1  O2-  1.0000  0.879390  0.608810  0.126270  Uiso  0.025330
    O1  O2-  1.0000  0.067650  0.879390  0.126270  Uiso  0.025330
    O1  O2-  1.0000  0.338230  0.879390  0.126270  Uiso  0.025330
    O1  O2-  1.0000  0.608810  0.879390  0.126270  Uiso  0.025330
    O1  O2-  1.0000  0.879390  0.879390  0.126270  Uiso  0.025330
    O1  O2-  1.0000  0.067650  0.067650  0.198430  Uiso  0.025330
    O1  O2-  1.0000  0.338230  0.067650  0.198430  Uiso  0.025330
    O1  O2-  1.0000  0.608810  0.067650  0.198430  Uiso  0.025330
    O1  O2-  1.0000  0.879390  0.067650  0.198430  Uiso  0.025330
    O1  O2-  1.0000  0.067650  0.338230  0.198430  Uiso  0.025330
    O1  O2-  1.0000  0.338230  0.338230  0.198430  Uiso  0.025330
    O1  O2-  1.0000  0.608810  0.338230  0.198430  Uiso  0.025330
    O1  O2-  1.0000  0.879390  0.338230  0.198430  Uiso  0.025330
    O1  O2-  1.0000  0.067650  0.608810  0.198430  Uiso  0.025330
    O1  O2-  1.0000  0.338230  0.608810  0.198430  Uiso  0.025330
    O1  O2-  1.0000  0.608810  0.608810  0.198430  Uiso  0.025330
    O1  O2-  1.0000  0.879390  0.608810  0.198430  Uiso  0.025330
    O1  O2-  1.0000  0.067650  0.879390  0.198430  Uiso  0.025330
    O1  O2-  1.0000  0.338230  0.879390  0.198430  Uiso  0.025330
    O1  O2-  1.0000  0.608810  0.879390  0.198430  Uiso  0.025330
    O1  O2-  1.0000  0.879390  0.879390  0.198430  Uiso  0.025330
    O1  O2-  1.0000  0.067650  0.067650  0.270580  Uiso  0.025330
    O1  O2-  1.0000  0.338230  0.067650  0.270580  Uiso  0.025330
    O1  O2-  1.0000  0.608810  0.067650  0.270580  Uiso  0.025330
    O1  O2-  1.0000  0.879390  0.067650  0.270580  Uiso  0.025330
    O1  O2-  1.0000  0.067650  0.338230  0.270580  Uiso  0.025330
    O1  O2-  1.0000  0.338230  0.338230  0.270580  Uiso  0.025330
    O1  O2-  1.0000  0.608810  0.338230  0.270580  Uiso  0.025330
    O1  O2-  1.0000  0.879390  0.338230  0.270580  Uiso  0.025330
    O1  O2-  1.0000  0.067650  0.608810  0.270580  Uiso  0.025330
    O1  O2-  1.0000  0.338230  0.608810  0.270580  Uiso  0.025330
    O1  O2-  1.0000  0.608810  0.608810  0.270580  Uiso  0.025330
    O1  O2-  1.0000  0.879390  0.608810  0.270580  Uiso  0.025330
    O1  O2-  1.0000  0.067650  0.879390  0.270580  Uiso  0.025330
    O1  O2-  1.0000  0.338230  0.879390  0.270580  Uiso  0.025330
    O1  O2-  1.0000  0.608810  0.879390  0.270580  Uiso  0.025330
    O1  O2-  1.0000  0.879390  0.879390  0.270580  Uiso  0.025330
    O1  O2-  1.0000  0.067650  0.067650  0.342730  Uiso  0.025330
    O1  O2-  1.0000  0.338230  0.067650  0.342730  Uiso  0.025330
    O1  O2-  1.0000  0.608810  0.067650  0.342730  Uiso  0.025330
    O1  O2-  1.0000  0.879390  0.067650  0.342730  Uiso  0.025330
    O1  O2-  1.0000  0.067650  0.338230  0.342730  Uiso  0.025330
    O1  O2-  1.0000  0.338230  0.338230  0.342730  Uiso  0.025330
    O1  O2-  1.0000  0.608810  0.338230  0.342730  Uiso  0.025330
    O1  O2-  1.0000  0.879390  0.338230  0.342730  Uiso  0.025330
    O1  O2-  1.0000  0.067650  0.608810  0.342730  Uiso  0.025330
    O1  O2-  1.0000  0.338230  0.608810  0.342730  Uiso  0.025330
    O1  O2-  1.0000  0.608810  0.608810  0.342730  Uiso  0.025330
    O1  O2-  1.0000  0.879390  0.608810  0.342730  Uiso  0.025330
    O1  O2-  1.0000  0.067650  0.879390  0.342730  Uiso  0.025330
    O1  O2-  1.0000  0.338230  0.879390  0.342730  Uiso  0.025330
    O1  O2-  1.0000  0.608810  0.879390  0.342730  Uiso  0.025330
    O1  O2-  1.0000  0.879390  0.879390  0.342730  Uiso  0.025330
    O1  O2-  1.0000  0.067650  0.067650  0.414890  Uiso  0.025330
    O1  O2-  1.0000  0.338230  0.067650  0.414890  Uiso  0.025330
    O1  O2-  1.0000  0.608810  0.067650  0.414890  Uiso  0.025330
    O1  O2-  1.0000  0.879390  0.067650  0.414890  Uiso  0.025330
    O1  O2-  1.0000  0.067650  0.338230  0.414890  Uiso  0.025330
    O1  O2-  1.0000  0.338230  0.338230  0.414890  Uiso  0.025330
    O1  O2-  1.0000  0.608810  0.338230  0.414890  Uiso  0.025330
    O1  O2-  1.0000  0.879390  0.338230  0.414890  Uiso  0.025330
    O1  O2-  1.0000  0.067650  0.608810  0.414890  Uiso  0.025330
    O1  O2-  1.0000  0.338230  0.608810  0.414890  Uiso  0.025330
    O1  O2-  1.0000  0.608810  0.608810  0.414890  Uiso  0.025330
    O1  O2-  1.0000  0.879390  0.608810  0.414890  Uiso  0.025330
    O1  O2-  1.0000  0.067650  0.879390  0.414890  Uiso  0.025330
    O1  O2-  1.0000  0.338230  0.879390  0.414890  Uiso  0.025330
    O1  O2-  1.0000  0.608810  0.879390  0.414890  Uiso  0.025330
    O1  O2-  1.0000  0.879390  0.879390  0.414890  Uiso  0.025330
    O1  O2-  1.0000  0.067650  0.067650  0.487040  Uiso  0.025330
    O1  O2-  1.0000  0.338230  0.067650  0.487040  Uiso  0.025330
    O1  O2-  1.0000  0.608810  0.067650  0.487040  Uiso  0.025330
    O1  O2-  1.0000  0.879390  0.067650  0.487040  Uiso  0.025330
    O1  O2-  1.0000  0.067650  0.338230  0.487040  Uiso  0.025330
    O1  O2-  1.0000  0.338230  0.338230  0.487040  Uiso  0.025330
    O1  O2-  1.0000  0.608810  0.338230  0.487040  Uiso  0.025330
    O1  O2-  1.0000  0.879390  0.338230  0.487040  Uiso  0.025330
    O1  O2-  1.0000  0.067650  0.608810  0.487040  Uiso  0.025330
    O1  O2-  1.0000  0.338230  0.608810  0.487040  Uiso  0.025330
    O1  O2-  1.0000  0.608810  0.608810  0.487040  Uiso  0.025330
    O1  O2-  1.0000  0.879390  0.608810  0.487040  Uiso  0.025330
    O1  O2-  1.0000  0.067650  0.879390  0.487040  Uiso  0.025330
    O1  O2-  1.0000  0.338230  0.879390  0.487040  Uiso  0.025330
    O1  O2-  1.0000  0.608810  0.879390  0.487040  Uiso  0.025330
    O1  O2-  1.0000  0.879390  0.879390  0.487040  Uiso  0.025330
    O1  O2-  1.0000  0.067650  0.067650  0.559200  Uiso  0.025330
    O1  O2-  1.0000  0.338230  0.067650  0.559200  Uiso  0.025330
    O1  O2-  1.0000  0.608810  0.067650  0.559200  Uiso  0.025330
    O1  O2-  1.0000  0.879390  0.067650  0.559200  Uiso  0.025330
    O1  O2-  1.0000  0.067650  0.338230  0.559200  Uiso  0.025330
    O1  O2-  1.0000  0.338230  0.338230  0.559200  Uiso  0.025330
    O1  O2-  1.0000  0.608810  0.338230  0.559200  Uiso  0.025330
    O1  O2-  1.0000  0.879390  0.338230  0.559200  Uiso  0.025330
    O1  O2-  1.0000  0.067650  0.608810  0.559200  Uiso  0.025330
    O1  O2-  1.0000  0.338230  0.608810  0.559200  Uiso  0.025330
    O1  O2-  1.0000  0.608810  0.608810  0.559200  Uiso  0.025330
    O1  O2-  1.0000  0.879390  0.608810  0.559200  Uiso  0.025330
    O1  O2-  1.0000  0.067650  0.879390  0.559200  Uiso  0.025330
    O1  O2-  1.0000  0.338230  0.879390  0.559200  Uiso  0.025330
    O1  O2-  1.0000  0.608810  0.879390  0.559200  Uiso  0.025330
    O1  O2-  1.0000  0.879390  0.879390  0.559200  Uiso  0.025330
    O1  O2-  1.0000  0.067650  0.067650  0.631350  Uiso  0.025330
    O1  O2-  1.0000  0.338230  0.067650  0.631350  Uiso  0.025330
    O1  O2-  1.0000  0.608810  0.067650  0.631350  Uiso  0.025330
    O1  O2-  1.0000  0.879390  0.067650  0.631350  Uiso  0.025330
    O1  O2-  1.0000  0.067650  0.338230  0.631350  Uiso  0.025330
    O1  O2-  1.0000  0.338230  0.338230  0.631350  Uiso  0.025330
    O1  O2-  1.0000  0.608810  0.338230  0.631350  Uiso  0.025330
    O1  O2-  1.0000  0.879390  0.338230  0.631350  Uiso  0.025330
    O1  O2-  1.0000  0.067650  0.608810  0.631350  Uiso  0.025330
    O1  O2-  1.0000  0.338230  0.608810  0.631350  Uiso  0.025330
    O1  O2-  1.0000  0.608810  0.608810  0.631350  Uiso  0.025330
    O1  O2-  1.0000  0.879390  0.608810  0.631350  Uiso  0.025330
    O1  O2-  1.0000  0.067650  0.879390  0.631350  Uiso  0.025330
    O1  O2-  1.0000  0.338230  0.879390  0.631350  Uiso  0.025330
    O1  O2-  1.0000  0.608810  0.879390  0.631350  Uiso  0.025330
    O1  O2-  1.0000  0.879390  0.879390  0.631350  Uiso  0.025330
    O1  O2-  1.0000  0.067650  0.067650  0.703510  Uiso  0.025330
    O1  O2-  1.0000  0.338230  0.067650  0.703510  Uiso  0.025330
    O1  O2-  1.0000  0.608810  0.067650  0.703510  Uiso  0.025330
    O1  O2-  1.0000  0.879390  0.067650  0.703510  Uiso  0.025330
    O1  O2-  1.0000  0.067650  0.338230  0.703510  Uiso  0.025330
    O1  O2-  1.0000  0.338230  0.338230  0.703510  Uiso  0.025330
    O1  O2-  1.0000  0.608810  0.338230  0.703510  Uiso  0.025330
    O1  O2-  1.0000  0.879390  0.338230  0.703510  Uiso  0.025330
    O1  O2-  1.0000  0.067650  0.608810  0.703510  Uiso  0.025330
    O1  O2-  1.0000  0.338230  0.608810  0.703510  Uiso  0.025330
    O1  O2-  1.0000  0.608810  0.608810  0.703510  Uiso  0.025330
    O1  O2-  1.0000  0.879390  0.608810  0.703510  Uiso  0.025330
    O1  O2-  1.0000  0.067650  0.879390  0.703510  Uiso  0.025330
    O1  O2-  1.0000  0.338230  0.879390  0.703510  Uiso  0.025330
    O1  O2-  1.0000  0.608810  0.879390  0.703510  Uiso  0.025330
    O1  O2-  1.0000  0.879390  0.879390  0.703510  Uiso  0.025330
    O1  O2-  1.0000  0.067650  0.067650  0.775660  Uiso  0.025330
    O1  O2-  1.0000  0.338230  0.067650  0.775660  Uiso  0.025330
    O1  O2-  1.0000  0.608810  0.067650  0.775660  Uiso  0.025330
    O1  O2-  1.0000  0.879390  0.067650  0.775660  Uiso  0.025330
    O1  O2-  1.0000  0.067650  0.338230  0.775660  Uiso  0.025330
    O1  O2-  1.0000  0.338230  0.338230  0.775660  Uiso  0.025330
    O1  O2-  1.0000  0.608810  0.338230  0.775660  Uiso  0.025330
    O1  O2-  1.0000  0.879390  0.338230  0.775660  Uiso  0.025330
    O1  O2-  1.0000  0.067650  0.608810  0.775660  Uiso  0.025330
    O1  O2-  1.0000  0.338230  0.608810  0.775660  Uiso  0.025330
    O1  O2-  1.0000  0.608810  0.608810  0.775660  Uiso  0.025330
    O1  O2-  1.0000  0.879390  0.608810  0.775660  Uiso  0.025330
    O1  O2-  1.0000  0.067650  0.879390  0.775660  Uiso  0.025330
    O1  O2-  1.0000  0.338230  0.879390  0.775660  Uiso  0.025330
    O1  O2-  1.0000  0.608810  0.879390  0.775660  Uiso  0.025330
    O1  O2-  1.0000  0.879390  0.879390  0.775660  Uiso  0.025330
    O1  O2-  1.0000  0.067650  0.067650  0.847820  Uiso  0.025330
    O1  O2-  1.0000  0.338230  0.067650  0.847820  Uiso  0.025330
    O1  O2-  1.0000  0.608810  0.067650  0.847820  Uiso  0.025330
    O1  O2-  1.0000  0.879390  0.067650  0.847820  Uiso  0.025330
    O1  O2-  1.0000  0.067650  0.338230  0.847820  Uiso  0.025330
    O1  O2-  1.0000  0.338230  0.338230  0.847820  Uiso  0.025330
    O1  O2-  1.0000  0.608810  0.338230  0.847820  Uiso  0.025330
    O1  O2-  1.0000  0.879390  0.338230  0.847820  Uiso  0.025330
    O1  O2-  1.0000  0.067650  0.608810  0.847820  Uiso  0.025330
    O1  O2-  1.0000  0.338230  0.608810  0.847820  Uiso  0.025330
    O1  O2-  1.0000  0.608810  0.608810  0.847820  Uiso  0.025330
    O1  O2-  1.0000  0.879390  0.608810  0.847820  Uiso  0.025330
    O1  O2-  1.0000  0.067650  0.879390  0.847820  Uiso  0.025330
    O1  O2-  1.0000  0.338230  0.879390  0.847820  Uiso  0.025330
    O1  O2-  1.0000  0.608810  0.879390  0.847820  Uiso  0.025330
    O1  O2-  1.0000  0.879390  0.879390  0.847820  Uiso  0.025330
    O1  O2-  1.0000  0.067650  0.067650  0.919970  Uiso  0.025330
    O1  O2-  1.0000  0.338230  0.067650  0.919970  Uiso  0.025330
    O1  O2-  1.0000  0.608810  0.067650  0.919970  Uiso  0.025330
    O1  O2-  1.0000  0.879390  0.067650  0.919970  Uiso  0.025330
    O1  O2-  1.0000  0.067650  0.338230  0.919970  Uiso  0.025330
    O1  O2-  1.0000  0.338230  0.338230  0.919970  Uiso  0.025330
    O1  O2-  1.0000  0.608810  0.338230  0.919970  Uiso  0.025330
    O1  O2-  1.0000  0.879390  0.338230  0.919970  Uiso  0.025330
    O1  O2-  1.0000  0.067650  0.608810  0.919970  Uiso  0.025330
    O1  O2-  1.0000  0.338230  0.608810  0.919970  Uiso  0.025330
    O1  O2-  1.0000  0.608810  0.608810  0.919970  Uiso  0.025330
    O1  O2-  1.0000  0.879390  0.608810  0.919970  Uiso  0.025330
    O1  O2-  1.0000  0.067650  0.879390  0.919970  Uiso  0.025330
    O1  O2-  1.0000  0.338230  0.879390  0.919970  Uiso  0.025330
    O1  O2-  1.0000  0.608810  0.879390  0.919970  Uiso  0.025330
    O1  O2-  1.0000  0.879390  0.879390  0.919970  Uiso  0.025330
    O1  O2-  1.0000  0.067650  0.067650  0.992130  Uiso  0.025330
    O1  O2-  1.0000  0.338230  0.067650  0.992130  Uiso  0.025330
    O1  O2-  1.0000  0.608810  0.067650  0.992130  Uiso  0.025330
    O1  O2-  1.0000  0.879390  0.067650  0.992130  Uiso  0.025330
    O1  O2-  1.0000  0.067650  0.338230  0.992130  Uiso  0.025330
    O1  O2-  1.0000  0.338230  0.338230  0.992130  Uiso  0.025330
    O1  O2-  1.0000  0.608810  0.338230  0.992130  Uiso  0.025330
    O1  O2-  1.0000  0.879390  0.338230  0.992130  Uiso  0.025330
    O1  O2-  1.0000  0.067650  0.608810  0.992130  Uiso  0.025330
    O1  O2-  1.0000  0.338230  0.608810  0.992130  Uiso  0.025330
    O1  O2-  1.0000  0.608810  0.608810  0.992130  Uiso  0.025330
    O1  O2-  1.0000  0.879390  0.608810  0.992130  Uiso  0.025330
    O1  O2-  1.0000  0.067650  0.879390  0.992130  Uiso  0.025330
    O1  O2-  1.0000  0.338230  0.879390  0.992130  Uiso  0.025330
    O1  O2-  1.0000  0.608810  0.879390  0.992130  Uiso  0.025330
    O1  O2-  1.0000  0.879390  0.879390  0.992130  Uiso  0.025330
    O1  O2-  1.0000  0.067650  0.202940  0.054120  Uiso  0.025330
    O1  O2-  1.0000  0.338230  0.202940  0.054120  Uiso  0.025330
    O1  O2-  1.0000  0.608810  0.202940  0.054120  Uiso  0.025330
    O1  O2-  1.0000  0.879390  0.202940  0.054120  Uiso  0.025330
    O1  O2-  1.0000  0.067650  0.473520  0.054120  Uiso  0.025330
    O1  O2-  1.0000  0.338230  0.473520  0.054120  Uiso  0.025330
    O1  O2-  1.0000  0.608810  0.473520  0.054120  Uiso  0.025330
    O1  O2-  1.0000  0.879390  0.473520  0.054120  Uiso  0.025330
    O1  O2-  1.0000  0.067650  0.744100  0.054120  Uiso  0.025330
    O1  O2-  1.0000  0.338230  0.744100  0.054120  Uiso  0.025330
    O1  O2-  1.0000  0.608810  0.744100  0.054120  Uiso  0.025330
    O1  O2-  1.0000  0.879390  0.744100  0.054120  Uiso  0.025330
    O1  O2-  1.0000  0.067650  0.202940  0.126270  Uiso  0.025330
    O1  O2-  1.0000  0.338230  0.202940  0.126270  Uiso  0.025330
    O1  O2-  1.0000  0.608810  0.202940  0.126270  Uiso  0.025330
    O1  O2-  1.0000  0.879390  0.202940  0.126270  Uiso  0.025330
    O1  O2-  1.0000  0.067650  0.473520  0.126270  Uiso  0.025330
    O1  O2-  1.0000  0.338230  0.473520  0.126270  Uiso  0.025330
    O1  O2-  1.0000  0.608810  0.473520  0.126270  Uiso  0.025330
    O1  O2-  1.0000  0.879390  0.473520  0.126270  Uiso  0.025330
    O1  O2-  1.0000  0.067650  0.744100  0.126270  Uiso  0.025330
    O1  O2-  1.0000  0.338230  0.744100  0.126270  Uiso  0.025330
    O1  O2-  1.0000  0.608810  0.744100  0.126270  Uiso  0.025330
    O1  O2-  1.0000  0.879390  0.744100  0.126270  Uiso  0.025330
    O1  O2-  1.0000  0.067650  0.202940  0.198430  Uiso  0.025330
    O1  O2-  1.0000  0.338230  0.202940  0.198430  Uiso  0.025330
    O1  O2-  1.0000  0.608810  0.202940  0.198430  Uiso  0.025330
    O1  O2-  1.0000  0.879390  0.202940  0.198430  Uiso  0.025330
    O1  O2-  1.0000  0.067650  0.473520  0.198430  Uiso  0.025330
    O1  O2-  1.0000  0.338230  0.473520  0.198430  Uiso  0.025330
    O1  O2-  1.0000  0.608810  0.473520  0.198430  Uiso  0.025330
    O1  O2-  1.0000  0.879390  0.473520  0.198430  Uiso  0.025330
    O1  O2-  1.0000  0.067650  0.744100  0.198430  Uiso  0.025330
    O1  O2-  1.0000  0.338230  0.744100  0.198430  Uiso  0.025330
    O1  O2-  1.0000  0.608810  0.744100  0.198430  Uiso  0.025330
    O1  O2-  1.0000  0.879390  0.744100  0.198430  Uiso  0.025330
    O1  O2-  1.0000  0.067650  0.202940  0.270580  Uiso  0.025330
    O1  O2-  1.0000  0.338230  0.202940  0.270580  Uiso  0.025330
    O1  O2-  1.0000  0.608810  0.202940  0.270580  Uiso  0.025330
    O1  O2-  1.0000  0.879390  0.202940  0.270580  Uiso  0.025330
    O1  O2-  1.0000  0.067650  0.473520  0.270580  Uiso  0.025330
    O1  O2-  1.0000  0.338230  0.473520  0.270580  Uiso  0.025330
    O1  O2-  1.0000  0.608810  0.473520  0.270580  Uiso  0.025330
    O1  O2-  1.0000  0.879390  0.473520  0.270580  Uiso  0.025330
    O1  O2-  1.0000  0.067650  0.744100  0.270580  Uiso  0.025330
    O1  O2-  1.0000  0.338230  0.744100  0.270580  Uiso  0.025330
    O1  O2-  1.0000  0.608810  0.744100  0.270580  Uiso  0.025330
    O1  O2-  1.0000  0.879390  0.744100  0.270580  Uiso  0.025330
    O1  O2-  1.0000  0.067650  0.202940  0.342730  Uiso  0.025330
    O1  O2-  1.0000  0.338230  0.202940  0.342730  Uiso  0.025330
    O1  O2-  1.0000  0.608810  0.202940  0.342730  Uiso  0.025330
    O1  O2-  1.0000  0.879390  0.202940  0.342730  Uiso  0.025330
    O1  O2-  1.0000  0.067650  0.473520  0.342730  Uiso  0.025330
    O1  O2-  1.0000  0.338230  0.473520  0.342730  Uiso  0.025330
    O1  O2-  1.0000  0.608810  0.473520  0.342730  Uiso  0.025330
    O1  O2-  1.0000  0.879390  0.473520  0.342730  Uiso  0.025330
    O1  O2-  1.0000  0.067650  0.744100  0.342730  Uiso  0.025330
    O1  O2-  1.0000  0.338230  0.744100  0.342730  Uiso  0.025330
    O1  O2-  1.0000  0.608810  0.744100  0.342730  Uiso  0.025330
    O1  O2-  1.0000  0.879390  0.744100  0.342730  Uiso  0.025330
    O1  O2-  1.0000  0.067650  0.202940  0.414890  Uiso  0.025330
    O1  O2-  1.0000  0.338230  0.202940  0.414890  Uiso  0.025330
    O1  O2-  1.0000  0.608810  0.202940  0.414890  Uiso  0.025330
    O1  O2-  1.0000  0.879390  0.202940  0.414890  Uiso  0.025330
    O1  O2-  1.0000  0.067650  0.473520  0.414890  Uiso  0.025330
    O1  O2-  1.0000  0.338230  0.473520  0.414890  Uiso  0.025330
    O1  O2-  1.0000  0.608810  0.473520  0.414890  Uiso  0.025330
    O1  O2-  1.0000  0.879390  0.473520  0.414890  Uiso  0.025330
    O1  O2-  1.0000  0.067650  0.744100  0.414890  Uiso  0.025330
    O1  O2-  1.0000  0.338230  0.744100  0.414890  Uiso  0.025330
    O1  O2-  1.0000  0.608810  0.744100  0.414890  Uiso  0.025330
    O1  O2-  1.0000  0.879390  0.744100  0.414890  Uiso  0.025330
    O1  O2-  1.0000  0.067650  0.202940  0.487040  Uiso  0.025330
    O1  O2-  1.0000  0.338230  0.202940  0.487040  Uiso  0.025330
    O1  O2-  1.0000  0.608810  0.202940  0.487040  Uiso  0.025330
    O1  O2-  1.0000  0.879390  0.202940  0.487040  Uiso  0.025330
    O1  O2-  1.0000  0.067650  0.473520  0.487040  Uiso  0.025330
    O1  O2-  1.0000  0.338230  0.473520  0.487040  Uiso  0.025330
    O1  O2-  1.0000  0.608810  0.473520  0.487040  Uiso  0.025330
    O1  O2-  1.0000  0.879390  0.473520  0.487040  Uiso  0.025330
    O1  O2-  1.0000  0.067650  0.744100  0.487040  Uiso  0.025330
    O1  O2-  1.0000  0.338230  0.744100  0.487040  Uiso  0.025330
    O1  O2-  1.0000  0.608810  0.744100  0.487040  Uiso  0.025330
    O1  O2-  1.0000  0.879390  0.744100  0.487040  Uiso  0.025330
    O1  O2-  1.0000  0.067650  0.202940  0.559200  Uiso  0.025330
    O1  O2-  1.0000  0.338230  0.202940  0.559200  Uiso  0.025330
    O1  O2-  1.0000  0.608810  0.202940  0.559200  Uiso  0.025330
    O1  O2-  1.0000  0.879390  0.202940  0.559200  Uiso  0.025330
    O1  O2-  1.0000  0.067650  0.473520  0.559200  Uiso  0.025330
    O1  O2-  1.0000  0.338230  0.473520  0.559200  Uiso  0.025330
    O1  O2-  1.0000  0.608810  0.473520  0.559200  Uiso  0.025330
    O1  O2-  1.0000  0.879390  0.473520  0.559200  Uiso  0.025330
    O1  O2-  1.0000  0.067650  0.744100  0.559200  Uiso  0.025330
    O1  O2-  1.0000  0.338230  0.744100  0.559200  Uiso  0.025330
    O1  O2-  1.0000  0.608810  0.744100  0.559200  Uiso  0.025330
    O1  O2-  1.0000  0.879390  0.744100  0.559200  Uiso  0.025330
    O1  O2-  1.0000  0.067650  0.202940  0.631350  Uiso  0.025330
    O1  O2-  1.0000  0.338230  0.202940  0.631350  Uiso  0.025330
    O1  O2-  1.0000  0.608810  0.202940  0.631350  Uiso  0.025330
    O1  O2-  1.0000  0.879390  0.202940  0.631350  Uiso  0.025330
    O1  O2-  1.0000  0.067650  0.473520  0.631350  Uiso  0.025330
    O1  O2-  1.0000  0.338230  0.473520  0.631350  Uiso  0.025330
    O1  O2-  1.0000  0.608810  0.473520  0.631350  Uiso  0.025330
    O1  O2-  1.0000  0.879390  0.473520  0.631350  Uiso  0.025330
    O1  O2-  1.0000  0.067650  0.744100  0.631350  Uiso  0.025330
    O1  O2-  1.0000  0.338230  0.744100  0.631350  Uiso  0.025330
    O1  O2-  1.0000  0.608810  0.744100  0.631350  Uiso  0.025330
    O1  O2-  1.0000  0.879390  0.744100  0.631350  Uiso  0.025330
    O1  O2-  1.0000  0.067650  0.202940  0.703510  Uiso  0.025330
    O1  O2-  1.0000  0.338230  0.202940  0.703510  Uiso  0.025330
    O1  O2-  1.0000  0.608810  0.202940  0.703510  Uiso  0.025330
    O1  O2-  1.0000  0.879390  0.202940  0.703510  Uiso  0.025330
    O1  O2-  1.0000  0.067650  0.473520  0.703510  Uiso  0.025330
    O1  O2-  1.0000  0.338230  0.473520  0.703510  Uiso  0.025330
    O1  O2-  1.0000  0.608810  0.473520  0.703510  Uiso  0.025330
    O1  O2-  1.0000  0.879390  0.473520  0.703510  Uiso  0.025330
    O1  O2-  1.0000  0.067650  0.744100  0.703510  Uiso  0.025330
    O1  O2-  1.0000  0.338230  0.744100  0.703510  Uiso  0.025330
    O1  O2-  1.0000  0.608810  0.744100  0.703510  Uiso  0.025330
    O1  O2-  1.0000  0.879390  0.744100  0.703510  Uiso  0.025330
    O1  O2-  1.0000  0.067650  0.202940  0.775660  Uiso  0.025330
    O1  O2-  1.0000  0.338230  0.202940  0.775660  Uiso  0.025330
    O1  O2-  1.0000  0.608810  0.202940  0.775660  Uiso  0.025330
    O1  O2-  1.0000  0.879390  0.202940  0.775660  Uiso  0.025330
    O1  O2-  1.0000  0.067650  0.473520  0.775660  Uiso  0.025330
    O1  O2-  1.0000  0.338230  0.473520  0.775660  Uiso  0.025330
    O1  O2-  1.0000  0.608810  0.473520  0.775660  Uiso  0.025330
    O1  O2-  1.0000  0.879390  0.473520  0.775660  Uiso  0.025330
    O1  O2-  1.0000  0.067650  0.744100  0.775660  Uiso  0.025330
    O1  O2-  1.0000  0.338230  0.744100  0.775660  Uiso  0.025330
    O1  O2-  1.0000  0.608810  0.744100  0.775660  Uiso  0.025330
    O1  O2-  1.0000  0.879390  0.744100  0.775660  Uiso  0.025330
    O1  O2-  1.0000  0.067650  0.202940  0.847820  Uiso  0.025330
    O1  O2-  1.0000  0.338230  0.202940  0.847820  Uiso  0.025330
    O1  O2-  1.0000  0.608810  0.202940  0.847820  Uiso  0.025330
    O1  O2-  1.0000  0.879390  0.202940  0.847820  Uiso  0.025330
    O1  O2-  1.0000  0.067650  0.473520  0.847820  Uiso  0.025330
    O1  O2-  1.0000  0.338230  0.473520  0.847820  Uiso  0.025330
    O1  O2-  1.0000  0.608810  0.473520  0.847820  Uiso  0.025330
    O1  O2-  1.0000  0.879390  0.473520  0.847820  Uiso  0.025330
    O1  O2-  1.0000  0.067650  0.744100  0.847820  Uiso  0.025330
    O1  O2-  1.0000  0.338230  0.744100  0.847820  Uiso  0.025330
    O1  O2-  1.0000  0.608810  0.744100  0.847820  Uiso  0.025330
    O1  O2-  1.0000  0.879390  0.744100  0.847820  Uiso  0.025330
    O1  O2-  1.0000  0.067650  0.202940  0.919970  Uiso  0.025330
    O1  O2-  1.0000  0.338230  0.202940  0.919970  Uiso  0.025330
    O1  O2-  1.0000  0.608810  0.202940  0.919970  Uiso  0.025330
    O1  O2-  1.0000  0.879390  0.202940  0.919970  Uiso  0.025330
    O1  O2-  1.0000  0.067650  0.473520  0.919970  Uiso  0.025330
    O1  O2-  1.0000  0.338230  0.473520  0.919970  Uiso  0.025330
    O1  O2-  1.0000  0.608810  0.473520  0.919970  Uiso  0.025330
    O1  O2-  1.0000  0.879390  0.473520  0.919970  Uiso  0.025330
    O1  O2-  1.0000  0.067650  0.744100  0.919970  Uiso  0.025330
    O1  O2-  1.0000  0.338230  0.744100  0.919970  Uiso  0.025330
    O1  O2-  1.0000  0.608810  0.744100  0.919970  Uiso  0.025330
    O1  O2-  1.0000  0.879390  0.744100  0.919970  Uiso  0.025330
    O1  O2-  1.0000  0.067650  0.202940  0.992130  Uiso  0.025330
    O1  O2-  1.0000  0.338230  0.202940  0.992130  Uiso  0.025330
    O1  O2-  1.0000  0.608810  0.202940  0.992130  Uiso  0.025330
    O1  O2-  1.0000  0.879390  0.202940  0.992130  Uiso  0.025330
    O1  O2-  1.0000  0.067650  0.473520  0.992130  Uiso  0.025330
    O1  O2-  1.0000  0.338230  0.473520  0.992130  Uiso  0.025330
    O1  O2-  1.0000  0.608810  0.473520  0.992130  Uiso  0.025330
    O1  O2-  1.0000  0.879390  0.473520  0.992130  Uiso  0.025330
    O1  O2-  1.0000  0.067650  0.744100  0.992130  Uiso  0.025330
    O1  O2-  1.0000  0.338230  0.744100  0.992130  Uiso  0.025330
    O1  O2-  1.0000  0.608810  0.744100  0.992130  Uiso  0.025330
    O1  O2-  1.0000  0.879390  0.744100  0.992130  Uiso  0.025330
    O1  O2-  1.0000  0.202940  0.067650  0.054120  Uiso  0.025330
    O1  O2-  1.0000  0.473520  0.067650  0.054120  Uiso  0.025330
    O1  O2-  1.0000  0.744100  0.067650  0.054120  Uiso  0.025330
    O1  O2-  1.0000  0.202940  0.338230  0.054120  Uiso  0.025330
    O1  O2-  1.0000  0.473520  0.338230  0.054120  Uiso  0.025330
    O1  O2-  1.0000  0.744100  0.338230  0.054120  Uiso  0.025330
    O1  O2-  1.0000  0.202940  0.608810  0.054120  Uiso  0.025330
    O1  O2-  1.0000  0.473520  0.608810  0.054120  Uiso  0.025330
    O1  O2-  1.0000  0.744100  0.608810  0.054120  Uiso  0.025330
    O1  O2-  1.0000  0.202940  0.879390  0.054120  Uiso  0.025330
    O1  O2-  1.0000  0.473520  0.879390  0.054120  Uiso  0.025330
    O1  O2-  1.0000  0.744100  0.879390  0.054120  Uiso  0.025330
    O1  O2-  1.0000  0.202940  0.067650  0.126270  Uiso  0.025330
    O1  O2-  1.0000  0.473520  0.067650  0.126270  Uiso  0.025330
    O1  O2-  1.0000  0.744100  0.067650  0.126270  Uiso  0.025330
    O1  O2-  1.0000  0.202940  0.338230  0.126270  Uiso  0.025330
    O1  O2-  1.0000  0.473520  0.338230  0.126270  Uiso  0.025330
    O1  O2-  1.0000  0.744100  0.338230  0.126270  Uiso  0.025330
    O1  O2-  1.0000  0.202940  0.608810  0.126270  Uiso  0.025330
    O1  O2-  1.0000  0.473520  0.608810  0.126270  Uiso  0.025330
    O1  O2-  1.0000  0.744100  0.608810  0.126270  Uiso  0.025330
    O1  O2-  1.0000  0.202940  0.879390  0.126270  Uiso  0.025330
    O1  O2-  1.0000  0.473520  0.879390  0.126270  Uiso  0.025330
    O1  O2-  1.0000  0.744100  0.879390  0.126270  Uiso  0.025330
    O1  O2-  1.0000  0.202940  0.067650  0.198430  Uiso  0.025330
    O1  O2-  1.0000  0.473520  0.067650  0.198430  Uiso  0.025330
    O1  O2-  1.0000  0.744100  0.067650  0.198430  Uiso  0.025330
    O1  O2-  1.0000  0.202940  0.338230  0.198430  Uiso  0.025330
    O1  O2-  1.0000  0.473520  0.338230  0.198430  Uiso  0.025330
    O1  O2-  1.0000  0.744100  0.338230  0.198430  Uiso  0.025330
    O1  O2-  1.0000  0.202940  0.608810  0.198430  Uiso  0.025330
    O1  O2-  1.0000  0.473520  0.608810  0.198430  Uiso  0.025330
    O1  O2-  1.0000  0.744100  0.608810  0.198430  Uiso  0.025330
    O1  O2-  1.0000  0.202940  0.879390  0.198430  Uiso  0.025330
    O1  O2-  1.0000  0.473520  0.879390  0.198430  Uiso  0.025330
    O1  O2-  1.0000  0.744100  0.879390  0.198430  Uiso  0.025330
    O1  O2-  1.0000  0.202940  0.067650  0.270580  Uiso  0.025330
    O1  O2-  1.0000  0.473520  0.067650  0.270580  Uiso  0.025330
    O1  O2-  1.0000  0.744100  0.067650  0.270580  Uiso  0.025330
    O1  O2-  1.0000  0.202940  0.338230  0.270580  Uiso  0.025330
    O1  O2-  1.0000  0.473520  0.338230  0.270580  Uiso  0.025330
    O1  O2-  1.0000  0.744100  0.338230  0.270580  Uiso  0.025330
    O1  O2-  1.0000  0.202940  0.608810  0.270580  Uiso  0.025330
    O1  O2-  1.0000  0.473520  0.608810  0.270580  Uiso  0.025330
    O1  O2-  1.0000  0.744100  0.608810  0.270580  Uiso  0.025330
    O1  O2-  1.0000  0.202940  0.879390  0.270580  Uiso  0.025330
    O1  O2-  1.0000  0.473520  0.879390  0.270580  Uiso  0.025330
    O1  O2-  1.0000  0.744100  0.879390  0.270580  Uiso  0.025330
    O1  O2-  1.0000  0.202940  0.067650  0.342730  Uiso  0.025330
    O1  O2-  1.0000  0.473520  0.067650  0.342730  Uiso  0.025330
    O1  O2-  1.0000  0.744100  0.067650  0.342730  Uiso  0.025330
    O1  O2-  1.0000  0.202940  0.338230  0.342730  Uiso  0.025330
    O1  O2-  1.0000  0.473520  0.338230  0.342730  Uiso  0.025330
    O1  O2-  1.0000  0.744100  0.338230  0.342730  Uiso  0.025330
    O1  O2-  1.0000  0.202940  0.608810  0.342730  Uiso  0.025330
    O1  O2-  1.0000  0.473520  0.608810  0.342730  Uiso  0.025330
    O1  O2-  1.0000  0.744100  0.608810  0.342730  Uiso  0.025330
    O1  O2-  1.0000  0.202940  0.879390  0.342730  Uiso  0.025330
    O1  O2-  1.0000  0.473520  0.879390  0.342730  Uiso  0.025330
    O1  O2-  1.0000  0.744100  0.879390  0.342730  Uiso  0.025330
    O1  O2-  1.0000  0.202940  0.067650  0.414890  Uiso  0.025330
    O1  O2-  1.0000  0.473520  0.067650  0.414890  Uiso  0.025330
    O1  O2-  1.0000  0.744100  0.067650  0.414890  Uiso  0.025330
    O1  O2-  1.0000  0.202940  0.338230  0.414890  Uiso  0.025330
    O1  O2-  1.0000  0.473520  0.338230  0.414890  Uiso  0.025330
    O1  O2-  1.0000  0.744100  0.338230  0.414890  Uiso  0.025330
    O1  O2-  1.0000  0.202940  0.608810  0.414890  Uiso  0.025330
    O1  O2-  1.0000  0.473520  0.608810  0.414890  Uiso  0.025330
    O1  O2-  1.0000  0.744100  0.608810  0.414890  Uiso  0.025330
    O1  O2-  1.0000  0.202940  0.879390  0.414890  Uiso  0.025330
    O1  O2-  1.0000  0.473520  0.879390  0.414890  Uiso  0.025330
    O1  O2-  1.0000  0.744100  0.879390  0.414890  Uiso  0.025330
    O1  O2-  1.0000  0.202940  0.067650  0.487040  Uiso  0.025330
    O1  O2-  1.0000  0.473520  0.067650  0.487040  Uiso  0.025330
    O1  O2-  1.0000  0.744100  0.067650  0.487040  Uiso  0.025330
    O1  O2-  1.0000  0.202940  0.338230  0.487040  Uiso  0.025330
    O1  O2-  1.0000  0.473520  0.338230  0.487040  Uiso  0.025330
    O1  O2-  1.0000  0.744100  0.338230  0.487040  Uiso  0.025330
    O1  O2-  1.0000  0.202940  0.608810  0.487040  Uiso  0.025330
    O1  O2-  1.0000  0.473520  0.608810  0.487040  Uiso  0.025330
    O1  O2-  1.0000  0.744100  0.608810  0.487040  Uiso  0.025330
    O1  O2-  1.0000  0.202940  0.879390  0.487040  Uiso  0.025330
    O1  O2-  1.0000  0.473520  0.879390  0.487040  Uiso  0.025330
    O1  O2-  1.0000  0.744100  0.879390  0.487040  Uiso  0.025330
    O1  O2-  1.0000  0.202940  0.067650  0.559200  Uiso  0.025330
    O1  O2-  1.0000  0.473520  0.067650  0.559200  Uiso  0.025330
    O1  O2-  1.0000  0.744100  0.067650  0.559200  Uiso  0.025330
    O1  O2-  1.0000  0.202940  0.338230  0.559200  Uiso  0.025330
    O1  O2-  1.0000  0.473520  0.338230  0.559200  Uiso  0.025330
    O1  O2-  1.0000  0.744100  0.338230  0.559200  Uiso  0.025330
    O1  O2-  1.0000  0.202940  0.608810  0.559200  Uiso  0.025330
    O1  O2-  1.0000  0.473520  0.608810  0.559200  Uiso  0.025330
    O1  O2-  1.0000  0.744100  0.608810  0.559200  Uiso  0.025330
    O1  O2-  1.0000  0.202940  0.879390  0.559200  Uiso  0.025330
    O1  O2-  1.0000  0.473520  0.879390  0.559200  Uiso  0.025330
    O1  O2-  1.0000  0.744100  0.879390  0.559200  Uiso  0.025330
    O1  O2-  1.0000  0.202940  0.067650  0.631350  Uiso  0.025330
    O1  O2-  1.0000  0.473520  0.067650  0.631350  Uiso  0.025330
    O1  O2-  1.0000  0.744100  0.067650  0.631350  Uiso  0.025330
    O1  O2-  1.0000  0.202940  0.338230  0.631350  Uiso  0.025330
    O1  O2-  1.0000  0.473520  0.338230  0.631350  Uiso  0.025330
    O1  O2-  1.0000  0.744100  0.338230  0.631350  Uiso  0.025330
    O1  O2-  1.0000  0.202940  0.608810  0.631350  Uiso  0.025330
    O1  O2-  1.0000  0.473520  0.608810  0.631350  Uiso  0.025330
    O1  O2-  1.0000  0.744100  0.608810  0.631350  Uiso  0.025330
    O1  O2-  1.0000  0.202940  0.879390  0.631350  Uiso  0.025330
    O1  O2-  1.0000  0.473520  0.879390  0.631350  Uiso  0.025330
    O1  O2-  1.0000  0.744100  0.879390  0.631350  Uiso  0.025330
    O1  O2-  1.0000  0.202940  0.067650  0.703510  Uiso  0.025330
    O1  O2-  1.0000  0.473520  0.067650  0.703510  Uiso  0.025330
    O1  O2-  1.0000  0.744100  0.067650  0.703510  Uiso  0.025330
    O1  O2-  1.0000  0.202940  0.338230  0.703510  Uiso  0.025330
    O1  O2-  1.0000  0.473520  0.338230  0.703510  Uiso  0.025330
    O1  O2-  1.0000  0.744100  0.338230  0.703510  Uiso  0.025330
    O1  O2-  1.0000  0.202940  0.608810  0.703510  Uiso  0.025330
    O1  O2-  1.0000  0.473520  0.608810  0.703510  Uiso  0.025330
    O1  O2-  1.0000  0.744100  0.608810  0.703510  Uiso  0.025330
    O1  O2-  1.0000  0.202940  0.879390  0.703510  Uiso  0.025330
    O1  O2-  1.0000  0.473520  0.879390  0.703510  Uiso  0.025330
    O1  O2-  1.0000  0.744100  0.879390  0.703510  Uiso  0.025330
    O1  O2-  1.0000  0.202940  0.067650  0.775660  Uiso  0.025330
    O1  O2-  1.0000  0.473520  0.067650  0.775660  Uiso  0.025330
    O1  O2-  1.0000  0.744100  0.067650  0.775660  Uiso  0.025330
    O1  O2-  1.0000  0.202940  0.338230  0.775660  Uiso  0.025330
    O1  O2-  1.0000  0.473520  0.338230  0.775660  Uiso  0.025330
    O1  O2-  1.0000  0.744100  0.338230  0.775660  Uiso  0.025330
    O1  O2-  1.0000  0.202940  0.608810  0.775660  Uiso  0.025330
    O1  O2-  1.0000  0.473520  0.608810  0.775660  Uiso  0.025330
    O1  O2-  1.0000  0.744100  0.608810  0.775660  Uiso  0.025330
    O1  O2-  1.0000  0.202940  0.879390  0.775660  Uiso  0.025330
    O1  O2-  1.0000  0.473520  0.879390  0.775660  Uiso  0.025330
    O1  O2-  1.0000  0.744100  0.879390  0.775660  Uiso  0.025330
    O1  O2-  1.0000  0.202940  0.067650  0.847820  Uiso  0.025330
    O1  O2-  1.0000  0.473520  0.067650  0.847820  Uiso  0.025330
    O1  O2-  1.0000  0.744100  0.067650  0.847820  Uiso  0.025330
    O1  O2-  1.0000  0.202940  0.338230  0.847820  Uiso  0.025330
    O1  O2-  1.0000  0.473520  0.338230  0.847820  Uiso  0.025330
    O1  O2-  1.0000  0.744100  0.338230  0.847820  Uiso  0.025330
    O1  O2-  1.0000  0.202940  0.608810  0.847820  Uiso  0.025330
    O1  O2-  1.0000  0.473520  0.608810  0.847820  Uiso  0.025330
    O1  O2-  1.0000  0.744100  0.608810  0.847820  Uiso  0.025330
    O1  O2-  1.0000  0.202940  0.879390  0.847820  Uiso  0.025330
    O1  O2-  1.0000  0.473520  0.879390  0.847820  Uiso  0.025330
    O1  O2-  1.0000  0.744100  0.879390  0.847820  Uiso  0.025330
    O1  O2-  1.0000  0.202940  0.067650  0.919970  Uiso  0.025330
    O1  O2-  1.0000  0.473520  0.067650  0.919970  Uiso  0.025330
    O1  O2-  1.0000  0.744100  0.067650  0.919970  Uiso  0.025330
    O1  O2-  1.0000  0.202940  0.338230  0.919970  Uiso  0.025330
    O1  O2-  1.0000  0.473520  0.338230  0.919970  Uiso  0.025330
    O1  O2-  1.0000  0.744100  0.338230  0.919970  Uiso  0.025330
    O1  O2-  1.0000  0.202940  0.608810  0.919970  Uiso  0.025330
    O1  O2-  1.0000  0.473520  0.608810  0.919970  Uiso  0.025330
    O1  O2-  1.0000  0.744100  0.608810  0.919970  Uiso  0.025330
    O1  O2-  1.0000  0.202940  0.879390  0.919970  Uiso  0.025330
    O1  O2-  1.0000  0.473520  0.879390  0.919970  Uiso  0.025330
    O1  O2-  1.0000  0.744100  0.879390  0.919970  Uiso  0.025330
    O1  O2-  1.0000  0.202940  0.067650  0.992130  Uiso  0.025330
    O1  O2-  1.0000  0.473520  0.067650  0.992130  Uiso  0.025330
    O1  O2-  1.0000  0.744100  0.067650  0.992130  Uiso  0.025330
    O1  O2-  1.0000  0.202940  0.338230  0.992130  Uiso  0.025330
    O1  O2-  1.0000  0.473520  0.338230  0.992130  Uiso  0.025330
    O1  O2-  1.0000  0.744100  0.338230  0.992130  Uiso  0.025330
    O1  O2-  1.0000  0.202940  0.608810  0.992130  Uiso  0.025330
    O1  O2-  1.0000  0.473520  0.608810  0.992130  Uiso  0.025330
    O1  O2-  1.0000  0.744100  0.608810  0.992130  Uiso  0.025330
    O1  O2-  1.0000  0.202940  0.879390  0.992130  Uiso  0.025330
    O1  O2-  1.0000  0.473520  0.879390  0.992130  Uiso  0.025330
    O1  O2-  1.0000  0.744100  0.879390  0.992130  Uiso  0.025330
    O1  O2-  1.0000  0.202940  0.067650  0.018040  Uiso  0.025330
    O1  O2-  1.0000  0.473520  0.067650  0.018040  Uiso  0.025330
    O1  O2-  1.0000  0.744100  0.067650  0.018040  Uiso  0.025330
    O1  O2-  1.0000  0.202940  0.338230  0.018040  Uiso  0.025330
    O1  O2-  1.0000  0.473520  0.338230  0.018040  Uiso  0.025330
    O1  O2-  1.0000  0.744100  0.338230  0.018040  Uiso  0.025330
    O1  O2-  1.0000  0.202940  0.608810  0.018040  Uiso  0.025330
    O1  O2-  1.0000  0.473520  0.608810  0.018040  Uiso  0.025330
    O1  O2-  1.0000  0.744100  0.608810  0.018040  Uiso  0.025330
    O1  O2-  1.0000  0.202940  0.879390  0.018040  Uiso  0.025330
    O1  O2-  1.0000  0.473520  0.879390  0.018040  Uiso  0.025330
    O1  O2-  1.0000  0.744100  0.879390  0.018040  Uiso  0.025330
    O1  O2-  1.0000  0.202940  0.067650  0.090190  Uiso  0.025330
    O1  O2-  1.0000  0.473520  0.067650  0.090190  Uiso  0.025330
    O1  O2-  1.0000  0.744100  0.067650  0.090190  Uiso  0.025330
    O1  O2-  1.0000  0.202940  0.338230  0.090190  Uiso  0.025330
    O1  O2-  1.0000  0.473520  0.338230  0.090190  Uiso  0.025330
    O1  O2-  1.0000  0.744100  0.338230  0.090190  Uiso  0.025330
    O1  O2-  1.0000  0.202940  0.608810  0.090190  Uiso  0.025330
    O1  O2-  1.0000  0.473520  0.608810  0.090190  Uiso  0.025330
    O1  O2-  1.0000  0.744100  0.608810  0.090190  Uiso  0.025330
    O1  O2-  1.0000  0.202940  0.879390  0.090190  Uiso  0.025330
    O1  O2-  1.0000  0.473520  0.879390  0.090190  Uiso  0.025330
    O1  O2-  1.0000  0.744100  0.879390  0.090190  Uiso  0.025330
    O1  O2-  1.0000  0.202940  0.067650  0.162350  Uiso  0.025330
    O1  O2-  1.0000  0.473520  0.067650  0.162350  Uiso  0.025330
    O1  O2-  1.0000  0.744100  0.067650  0.162350  Uiso  0.025330
    O1  O2-  1.0000  0.202940  0.338230  0.162350  Uiso  0.025330
    O1  O2-  1.0000  0.473520  0.338230  0.162350  Uiso  0.025330
    O1  O2-  1.0000  0.744100  0.338230  0.162350  Uiso  0.025330
    O1  O2-  1.0000  0.202940  0.608810  0.162350  Uiso  0.025330
    O1  O2-  1.0000  0.473520  0.608810  0.162350  Uiso  0.025330
    O1  O2-  1.0000  0.744100  0.608810  0.162350  Uiso  0.025330
    O1  O2-  1.0000  0.202940  0.879390  0.162350  Uiso  0.025330
    O1  O2-  1.0000  0.473520  0.879390  0.162350  Uiso  0.025330
    O1  O2-  1.0000  0.744100  0.879390  0.162350  Uiso  0.025330
    O1  O2-  1.0000  0.202940  0.067650  0.234500  Uiso  0.025330
    O1  O2-  1.0000  0.473520  0.067650  0.234500  Uiso  0.025330
    O1  O2-  1.0000  0.744100  0.067650  0.234500  Uiso  0.025330
    O1  O2-  1.0000  0.202940  0.338230  0.234500  Uiso  0.025330
    O1  O2-  1.0000  0.473520  0.338230  0.234500  Uiso  0.025330
    O1  O2-  1.0000  0.744100  0.338230  0.234500  Uiso  0.025330
    O1  O2-  1.0000  0.202940  0.608810  0.234500  Uiso  0.025330
    O1  O2-  1.0000  0.473520  0.608810  0.234500  Uiso  0.025330
    O1  O2-  1.0000  0.744100  0.608810  0.234500  Uiso  0.025330
    O1  O2-  1.0000  0.202940  0.879390  0.234500  Uiso  0.025330
    O1  O2-  1.0000  0.473520  0.879390  0.234500  Uiso  0.025330
    O1  O2-  1.0000  0.744100  0.879390  0.234500  Uiso  0.025330
    O1  O2-  1.0000  0.202940  0.067650  0.306660  Uiso  0.025330
    O1  O2-  1.0000  0.473520  0.067650  0.306660  Uiso  0.025330
    O1  O2-  1.0000  0.744100  0.067650  0.306660  Uiso  0.025330
    O1  O2-  1.0000  0.202940  0.338230  0.306660  Uiso  0.025330
    O1  O2-  1.0000  0.473520  0.338230  0.306660  Uiso  0.025330
    O1  O2-  1.0000  0.744100  0.338230  0.306660  Uiso  0.025330
    O1  O2-  1.0000  0.202940  0.608810  0.306660  Uiso  0.025330
    O1  O2-  1.0000  0.473520  0.608810  0.306660  Uiso  0.025330
    O1  O2-  1.0000  0.744100  0.608810  0.306660  Uiso  0.025330
    O1  O2-  1.0000  0.202940  0.879390  0.306660  Uiso  0.025330
    O1  O2-  1.0000  0.473520  0.879390  0.306660  Uiso  0.025330
    O1  O2-  1.0000  0.744100  0.879390  0.306660  Uiso  0.025330
    O1  O2-  1.0000  0.202940  0.067650  0.378810  Uiso  0.025330
    O1  O2-  1.0000  0.473520  0.067650  0.378810  Uiso  0.025330
    O1  O2-  1.0000  0.744100  0.067650  0.378810  Uiso  0.025330
    O1  O2-  1.0000  0.202940  0.338230  0.378810  Uiso  0.025330
    O1  O2-  1.0000  0.473520  0.338230  0.378810  Uiso  0.025330
    O1  O2-  1.0000  0.744100  0.338230  0.378810  Uiso  0.025330
    O1  O2-  1.0000  0.202940  0.608810  0.378810  Uiso  0.025330
    O1  O2-  1.0000  0.473520  0.608810  0.378810  Uiso  0.025330
    O1  O2-  1.0000  0.744100  0.608810  0.378810  Uiso  0.025330
    O1  O2-  1.0000  0.202940  0.879390  0.378810  Uiso  0.025330
    O1  O2-  1.0000  0.473520  0.879390  0.378810  Uiso  0.025330
    O1  O2-  1.0000  0.744100  0.879390  0.378810  Uiso  0.025330
    O1  O2-  1.0000  0.202940  0.067650  0.450970  Uiso  0.025330
    O1  O2-  1.0000  0.473520  0.067650  0.450970  Uiso  0.025330
    O1  O2-  1.0000  0.744100  0.067650  0.450970  Uiso  0.025330
    O1  O2-  1.0000  0.202940  0.338230  0.450970  Uiso  0.025330
    O1  O2-  1.0000  0.473520  0.338230  0.450970  Uiso  0.025330
    O1  O2-  1.0000  0.744100  0.338230  0.450970  Uiso  0.025330
    O1  O2-  1.0000  0.202940  0.608810  0.450970  Uiso  0.025330
    O1  O2-  1.0000  0.473520  0.608810  0.450970  Uiso  0.025330
    O1  O2-  1.0000  0.744100  0.608810  0.450970  Uiso  0.025330
    O1  O2-  1.0000  0.202940  0.879390  0.450970  Uiso  0.025330
    O1  O2-  1.0000  0.473520  0.879390  0.450970  Uiso  0.025330
    O1  O2-  1.0000  0.744100  0.879390  0.450970  Uiso  0.025330
    O1  O2-  1.0000  0.202940  0.067650  0.523120  Uiso  0.025330
    O1  O2-  1.0000  0.473520  0.067650  0.523120  Uiso  0.025330
    O1  O2-  1.0000  0.744100  0.067650  0.523120  Uiso  0.025330
    O1  O2-  1.0000  0.202940  0.338230  0.523120  Uiso  0.025330
    O1  O2-  1.0000  0.473520  0.338230  0.523120  Uiso  0.025330
    O1  O2-  1.0000  0.744100  0.338230  0.523120  Uiso  0.025330
    O1  O2-  1.0000  0.202940  0.608810  0.523120  Uiso  0.025330
    O1  O2-  1.0000  0.473520  0.608810  0.523120  Uiso  0.025330
    O1  O2-  1.0000  0.744100  0.608810  0.523120  Uiso  0.025330
    O1  O2-  1.0000  0.202940  0.879390  0.523120  Uiso  0.025330
    O1  O2-  1.0000  0.473520  0.879390  0.523120  Uiso  0.025330
    O1  O2-  1.0000  0.744100  0.879390  0.523120  Uiso  0.025330
    O1  O2-  1.0000  0.202940  0.067650  0.595280  Uiso  0.025330
    O1  O2-  1.0000  0.473520  0.067650  0.595280  Uiso  0.025330
    O1  O2-  1.0000  0.744100  0.067650  0.595280  Uiso  0.025330
    O1  O2-  1.0000  0.202940  0.338230  0.595280  Uiso  0.025330
    O1  O2-  1.0000  0.473520  0.338230  0.595280  Uiso  0.025330
    O1  O2-  1.0000  0.744100  0.338230  0.595280  Uiso  0.025330
    O1  O2-  1.0000  0.202940  0.608810  0.595280  Uiso  0.025330
    O1  O2-  1.0000  0.473520  0.608810  0.595280  Uiso  0.025330
    O1  O2-  1.0000  0.744100  0.608810  0.595280  Uiso  0.025330
    O1  O2-  1.0000  0.202940  0.879390  0.595280  Uiso  0.025330
    O1  O2-  1.0000  0.473520  0.879390  0.595280  Uiso  0.025330
    O1  O2-  1.0000  0.744100  0.879390  0.595280  Uiso  0.025330
    O1  O2-  1.0000  0.202940  0.067650  0.667430  Uiso  0.025330
    O1  O2-  1.0000  0.473520  0.067650  0.667430  Uiso  0.025330
    O1  O2-  1.0000  0.744100  0.067650  0.667430  Uiso  0.025330
    O1  O2-  1.0000  0.202940  0.338230  0.667430  Uiso  0.025330
    O1  O2-  1.0000  0.473520  0.338230  0.667430  Uiso  0.025330
    O1  O2-  1.0000  0.744100  0.338230  0.667430  Uiso  0.025330
    O1  O2-  1.0000  0.202940  0.608810  0.667430  Uiso  0.025330
    O1  O2-  1.0000  0.473520  0.608810  0.667430  Uiso  0.025330
    O1  O2-  1.0000  0.744100  0.608810  0.667430  Uiso  0.025330
    O1  O2-  1.0000  0.202940  0.879390  0.667430  Uiso  0.025330
    O1  O2-  1.0000  0.473520  0.879390  0.667430  Uiso  0.025330
    O1  O2-  1.0000  0.744100  0.879390  0.667430  Uiso  0.025330
    O1  O2-  1.0000  0.202940  0.067650  0.739590  Uiso  0.025330
    O1  O2-  1.0000  0.473520  0.067650  0.739590  Uiso  0.025330
    O1  O2-  1.0000  0.744100  0.067650  0.739590  Uiso  0.025330
    O1  O2-  1.0000  0.202940  0.338230  0.739590  Uiso  0.025330
    O1  O2-  1.0000  0.473520  0.338230  0.739590  Uiso  0.025330
    O1  O2-  1.0000  0.744100  0.338230  0.739590  Uiso  0.025330
    O1  O2-  1.0000  0.202940  0.608810  0.739590  Uiso  0.025330
    O1  O2-  1.0000  0.473520  0.608810  0.739590  Uiso  0.025330
    O1  O2-  1.0000  0.744100  0.608810  0.739590  Uiso  0.025330
    O1  O2-  1.0000  0.202940  0.879390  0.739590  Uiso  0.025330
    O1  O2-  1.0000  0.473520  0.879390  0.739590  Uiso  0.025330
    O1  O2-  1.0000  0.744100  0.879390  0.739590  Uiso  0.025330
    O1  O2-  1.0000  0.202940  0.067650  0.811740  Uiso  0.025330
    O1  O2-  1.0000  0.473520  0.067650  0.811740  Uiso  0.025330
    O1  O2-  1.0000  0.744100  0.067650  0.811740  Uiso  0.025330
    O1  O2-  1.0000  0.202940  0.338230  0.811740  Uiso  0.025330
    O1  O2-  1.0000  0.473520  0.338230  0.811740  Uiso  0.025330
    O1  O2-  1.0000  0.744100  0.338230  0.811740  Uiso  0.025330
    O1  O2-  1.0000  0.202940  0.608810  0.811740  Uiso  0.025330
    O1  O2-  1.0000  0.473520  0.608810  0.811740  Uiso  0.025330
    O1  O2-  1.0000  0.744100  0.608810  0.811740  Uiso  0.025330
    O1  O2-  1.0000  0.202940  0.879390  0.811740  Uiso  0.025330
    O1  O2-  1.0000  0.473520  0.879390  0.811740  Uiso  0.025330
    O1  O2-  1.0000  0.744100  0.879390  0.811740  Uiso  0.025330
    O1  O2-  1.0000  0.202940  0.067650  0.883890  Uiso  0.025330
    O1  O2-  1.0000  0.473520  0.067650  0.883890  Uiso  0.025330
    O1  O2-  1.0000  0.744100  0.067650  0.883890  Uiso  0.025330
    O1  O2-  1.0000  0.202940  0.338230  0.883890  Uiso  0.025330
    O1  O2-  1.0000  0.473520  0.338230  0.883890  Uiso  0.025330
    O1  O2-  1.0000  0.744100  0.338230  0.883890  Uiso  0.025330
    O1  O2-  1.0000  0.202940  0.608810  0.883890  Uiso  0.025330
    O1  O2-  1.0000  0.473520  0.608810  0.883890  Uiso  0.025330
    O1  O2-  1.0000  0.744100  0.608810  0.883890  Uiso  0.025330
    O1  O2-  1.0000  0.202940  0.879390  0.883890  Uiso  0.025330
    O1  O2-  1.0000  0.473520  0.879390  0.883890  Uiso  0.025330
    O1  O2-  1.0000  0.744100  0.879390  0.883890  Uiso  0.025330
    O1  O2-  1.0000  0.202940  0.067650  0.956050  Uiso  0.025330
    O1  O2-  1.0000  0.473520  0.067650  0.956050  Uiso  0.025330
    O1  O2-  1.0000  0.744100  0.067650  0.956050  Uiso  0.025330
    O1  O2-  1.0000  0.202940  0.338230  0.956050  Uiso  0.025330
    O1  O2-  1.0000  0.473520  0.338230  0.956050  Uiso  0.025330
    O1  O2-  1.0000  0.744100  0.338230  0.956050  Uiso  0.025330
    O1  O2-  1.0000  0.202940  0.608810  0.956050  Uiso  0.025330
    O1  O2-  1.0000  0.473520  0.608810  0.956050  Uiso  0.025330
    O1  O2-  1.0000  0.744100  0.608810  0.956050  Uiso  0.025330
    O1  O2-  1.0000  0.202940  0.879390  0.956050  Uiso  0.025330
    O1  O2-  1.0000  0.473520  0.879390  0.956050  Uiso  0.025330
    O1  O2-  1.0000  0.744100  0.879390  0.956050  Uiso  0.025330
    O1  O2-  1.0000  0.202940  0.202940  0.054120  Uiso  0.025330
    O1  O2-  1.0000  0.473520  0.202940  0.054120  Uiso  0.025330
    O1  O2-  1.0000  0.744100  0.202940  0.054120  Uiso  0.025330
    O1  O2-  1.0000  0.202940  0.473520  0.054120  Uiso  0.025330
    O1  O2-  1.0000  0.473520  0.473520  0.054120  Uiso  0.025330
    O1  O2-  1.0000  0.744100  0.473520  0.054120  Uiso  0.025330
    O1  O2-  1.0000  0.202940  0.744100  0.054120  Uiso  0.025330
    O1  O2-  1.0000  0.473520  0.744100  0.054120  Uiso  0.025330
    O1  O2-  1.0000  0.744100  0.744100  0.054120  Uiso  0.025330
    O1  O2-  1.0000  0.202940  0.202940  0.126270  Uiso  0.025330
    O1  O2-  1.0000  0.473520  0.202940  0.126270  Uiso  0.025330
    O1  O2-  1.0000  0.744100  0.202940  0.126270  Uiso  0.025330
    O1  O2-  1.0000  0.202940  0.473520  0.126270  Uiso  0.025330
    O1  O2-  1.0000  0.473520  0.473520  0.126270  Uiso  0.025330
    O1  O2-  1.0000  0.744100  0.473520  0.126270  Uiso  0.025330
    O1  O2-  1.0000  0.202940  0.744100  0.126270  Uiso  0.025330
    O1  O2-  1.0000  0.473520  0.744100  0.126270  Uiso  0.025330
    O1  O2-  1.0000  0.744100  0.744100  0.126270  Uiso  0.025330
    O1  O2-  1.0000  0.202940  0.202940  0.198430  Uiso  0.025330
    O1  O2-  1.0000  0.473520  0.202940  0.198430  Uiso  0.025330
    O1  O2-  1.0000  0.744100  0.202940  0.198430  Uiso  0.025330
    O1  O2-  1.0000  0.202940  0.473520  0.198430  Uiso  0.025330
    O1  O2-  1.0000  0.473520  0.473520  0.198430  Uiso  0.025330
    O1  O2-  1.0000  0.744100  0.473520  0.198430  Uiso  0.025330
    O1  O2-  1.0000  0.202940  0.744100  0.198430  Uiso  0.025330
    O1  O2-  1.0000  0.473520  0.744100  0.198430  Uiso  0.025330
    O1  O2-  1.0000  0.744100  0.744100  0.198430  Uiso  0.025330
    O1  O2-  1.0000  0.202940  0.202940  0.270580  Uiso  0.025330
    O1  O2-  1.0000  0.473520  0.202940  0.270580  Uiso  0.025330
    O1  O2-  1.0000  0.744100  0.202940  0.270580  Uiso  0.025330
    O1  O2-  1.0000  0.202940  0.473520  0.270580  Uiso  0.025330
    O1  O2-  1.0000  0.473520  0.473520  0.270580  Uiso  0.025330
    O1  O2-  1.0000  0.744100  0.473520  0.270580  Uiso  0.025330
    O1  O2-  1.0000  0.202940  0.744100  0.270580  Uiso  0.025330
    O1  O2-  1.0000  0.473520  0.744100  0.270580  Uiso  0.025330
    O1  O2-  1.0000  0.744100  0.744100  0.270580  Uiso  0.025330
    O1  O2-  1.0000  0.202940  0.202940  0.342730  Uiso  0.025330
    O1  O2-  1.0000  0.473520  0.202940  0.342730  Uiso  0.025330
    O1  O2-  1.0000  0.744100  0.202940  0.342730  Uiso  0.025330
    O1  O2-  1.0000  0.202940  0.473520  0.342730  Uiso  0.025330
    O1  O2-  1.0000  0.473520  0.473520  0.342730  Uiso  0.025330
    O1  O2-  1.0000  0.744100  0.473520  0.342730  Uiso  0.025330
    O1  O2-  1.0000  0.202940  0.744100  0.342730  Uiso  0.025330
    O1  O2-  1.0000  0.473520  0.744100  0.342730  Uiso  0.025330
    O1  O2-  1.0000  0.744100  0.744100  0.342730  Uiso  0.025330
    O1  O2-  1.0000  0.202940  0.202940  0.414890  Uiso  0.025330
    O1  O2-  1.0000  0.473520  0.202940  0.414890  Uiso  0.025330
    O1  O2-  1.0000  0.744100  0.202940  0.414890  Uiso  0.025330
    O1  O2-  1.0000  0.202940  0.473520  0.414890  Uiso  0.025330
    O1  O2-  1.0000  0.473520  0.473520  0.414890  Uiso  0.025330
    O1  O2-  1.0000  0.744100  0.473520  0.414890  Uiso  0.025330
    O1  O2-  1.0000  0.202940  0.744100  0.414890  Uiso  0.025330
    O1  O2-  1.0000  0.473520  0.744100  0.414890  Uiso  0.025330
    O1  O2-  1.0000  0.744100  0.744100  0.414890  Uiso  0.025330
    O1  O2-  1.0000  0.202940  0.202940  0.487040  Uiso  0.025330
    O1  O2-  1.0000  0.473520  0.202940  0.487040  Uiso  0.025330
    O1  O2-  1.0000  0.744100  0.202940  0.487040  Uiso  0.025330
    O1  O2-  1.0000  0.202940  0.473520  0.487040  Uiso  0.025330
    O1  O2-  1.0000  0.473520  0.473520  0.487040  Uiso  0.025330
    O1  O2-  1.0000  0.744100  0.473520  0.487040  Uiso  0.025330
    O1  O2-  1.0000  0.202940  0.744100  0.487040  Uiso  0.025330
    O1  O2-  1.0000  0.473520  0.744100  0.487040  Uiso  0.025330
    O1  O2-  1.0000  0.744100  0.744100  0.487040  Uiso  0.025330
    O1  O2-  1.0000  0.202940  0.202940  0.559200  Uiso  0.025330
    O1  O2-  1.0000  0.473520  0.202940  0.559200  Uiso  0.025330
    O1  O2-  1.0000  0.744100  0.202940  0.559200  Uiso  0.025330
    O1  O2-  1.0000  0.202940  0.473520  0.559200  Uiso  0.025330
    O1  O2-  1.0000  0.473520  0.473520  0.559200  Uiso  0.025330
    O1  O2-  1.0000  0.744100  0.473520  0.559200  Uiso  0.025330
    O1  O2-  1.0000  0.202940  0.744100  0.559200  Uiso  0.025330
    O1  O2-  1.0000  0.473520  0.744100  0.559200  Uiso  0.025330
    O1  O2-  1.0000  0.744100  0.744100  0.559200  Uiso  0.025330
    O1  O2-  1.0000  0.202940  0.202940  0.631350  Uiso  0.025330
    O1  O2-  1.0000  0.473520  0.202940  0.631350  Uiso  0.025330
    O1  O2-  1.0000  0.744100  0.202940  0.631350  Uiso  0.025330
    O1  O2-  1.0000  0.202940  0.473520  0.631350  Uiso  0.025330
    O1  O2-  1.0000  0.473520  0.473520  0.631350  Uiso  0.025330
    O1  O2-  1.0000  0.744100  0.473520  0.631350  Uiso  0.025330
    O1  O2-  1.0000  0.202940  0.744100  0.631350  Uiso  0.025330
    O1  O2-  1.0000  0.473520  0.744100  0.631350  Uiso  0.025330
    O1  O2-  1.0000  0.744100  0.744100  0.631350  Uiso  0.025330
    O1  O2-  1.0000  0.202940  0.202940  0.703510  Uiso  0.025330
    O1  O2-  1.0000  0.473520  0.202940  0.703510  Uiso  0.025330
    O1  O2-  1.0000  0.744100  0.202940  0.703510  Uiso  0.025330
    O1  O2-  1.0000  0.202940  0.473520  0.703510  Uiso  0.025330
    O1  O2-  1.0000  0.473520  0.473520  0.703510  Uiso  0.025330
    O1  O2-  1.0000  0.744100  0.473520  0.703510  Uiso  0.025330
    O1  O2-  1.0000  0.202940  0.744100  0.703510  Uiso  0.025330
    O1  O2-  1.0000  0.473520  0.744100  0.703510  Uiso  0.025330
    O1  O2-  1.0000  0.744100  0.744100  0.703510  Uiso  0.025330
    O1  O2-  1.0000  0.202940  0.202940  0.775660  Uiso  0.025330
    O1  O2-  1.0000  0.473520  0.202940  0.775660  Uiso  0.025330
    O1  O2-  1.0000  0.744100  0.202940  0.775660  Uiso  0.025330
    O1  O2-  1.0000  0.202940  0.473520  0.775660  Uiso  0.025330
    O1  O2-  1.0000  0.473520  0.473520  0.775660  Uiso  0.025330
    O1  O2-  1.0000  0.744100  0.473520  0.775660  Uiso  0.025330
    O1  O2-  1.0000  0.202940  0.744100  0.775660  Uiso  0.025330
    O1  O2-  1.0000  0.473520  0.744100  0.775660  Uiso  0.025330
    O1  O2-  1.0000  0.744100  0.744100  0.775660  Uiso  0.025330
    O1  O2-  1.0000  0.202940  0.202940  0.847820  Uiso  0.025330
    O1  O2-  1.0000  0.473520  0.202940  0.847820  Uiso  0.025330
    O1  O2-  1.0000  0.744100  0.202940  0.847820  Uiso  0.025330
    O1  O2-  1.0000  0.202940  0.473520  0.847820  Uiso  0.025330
    O1  O2-  1.0000  0.473520  0.473520  0.847820  Uiso  0.025330
    O1  O2-  1.0000  0.744100  0.473520  0.847820  Uiso  0.025330
    O1  O2-  1.0000  0.202940  0.744100  0.847820  Uiso  0.025330
    O1  O2-  1.0000  0.473520  0.744100  0.847820  Uiso  0.025330
    O1  O2-  1.0000  0.744100  0.744100  0.847820  Uiso  0.025330
    O1  O2-  1.0000  0.202940  0.202940  0.919970  Uiso  0.025330
    O1  O2-  1.0000  0.473520  0.202940  0.919970  Uiso  0.025330
    O1  O2-  1.0000  0.744100  0.202940  0.919970  Uiso  0.025330
    O1  O2-  1.0000  0.202940  0.473520  0.919970  Uiso  0.025330
    O1  O2-  1.0000  0.473520  0.473520  0.919970  Uiso  0.025330
    O1  O2-  1.0000  0.744100  0.473520  0.919970  Uiso  0.025330
    O1  O2-  1.0000  0.202940  0.744100  0.919970  Uiso  0.025330
    O1  O2-  1.0000  0.473520  0.744100  0.919970  Uiso  0.025330
    O1  O2-  1.0000  0.744100  0.744100  0.919970  Uiso  0.025330
    O1  O2-  1.0000  0.202940  0.202940  0.992130  Uiso  0.025330
    O1  O2-  1.0000  0.473520  0.202940  0.992130  Uiso  0.025330
    O1  O2-  1.0000  0.744100  0.202940  0.992130  Uiso  0.025330
    O1  O2-  1.0000  0.202940  0.473520  0.992130  Uiso  0.025330
    O1  O2-  1.0000  0.473520  0.473520  0.992130  Uiso  0.025330
    O1  O2-  1.0000  0.744100  0.473520  0.992130  Uiso  0.025330
    O1  O2-  1.0000  0.202940  0.744100  0.992130  Uiso  0.025330
    O1  O2-  1.0000  0.473520  0.744100  0.992130  Uiso  0.025330
    O1  O2-  1.0000  0.744100  0.744100  0.992130  Uiso  0.025330
    O1  O2-  1.0000  0.067650  0.202940  0.018040  Uiso  0.025330
    O1  O2-  1.0000  0.338230  0.202940  0.018040  Uiso  0.025330
    O1  O2-  1.0000  0.608810  0.202940  0.018040  Uiso  0.025330
    O1  O2-  1.0000  0.879390  0.202940  0.018040  Uiso  0.025330
    O1  O2-  1.0000  0.067650  0.473520  0.018040  Uiso  0.025330
    O1  O2-  1.0000  0.338230  0.473520  0.018040  Uiso  0.025330
    O1  O2-  1.0000  0.608810  0.473520  0.018040  Uiso  0.025330
    O1  O2-  1.0000  0.879390  0.473520  0.018040  Uiso  0.025330
    O1  O2-  1.0000  0.067650  0.744100  0.018040  Uiso  0.025330
    O1  O2-  1.0000  0.338230  0.744100  0.018040  Uiso  0.025330
    O1  O2-  1.0000  0.608810  0.744100  0.018040  Uiso  0.025330
    O1  O2-  1.0000  0.879390  0.744100  0.018040  Uiso  0.025330
    O1  O2-  1.0000  0.067650  0.202940  0.090190  Uiso  0.025330
    O1  O2-  1.0000  0.338230  0.202940  0.090190  Uiso  0.025330
    O1  O2-  1.0000  0.608810  0.202940  0.090190  Uiso  0.025330
    O1  O2-  1.0000  0.879390  0.202940  0.090190  Uiso  0.025330
    O1  O2-  1.0000  0.067650  0.473520  0.090190  Uiso  0.025330
    O1  O2-  1.0000  0.338230  0.473520  0.090190  Uiso  0.025330
    O1  O2-  1.0000  0.608810  0.473520  0.090190  Uiso  0.025330
    O1  O2-  1.0000  0.879390  0.473520  0.090190  Uiso  0.025330
    O1  O2-  1.0000  0.067650  0.744100  0.090190  Uiso  0.025330
    O1  O2-  1.0000  0.338230  0.744100  0.090190  Uiso  0.025330
    O1  O2-  1.0000  0.608810  0.744100  0.090190  Uiso  0.025330
    O1  O2-  1.0000  0.879390  0.744100  0.090190  Uiso  0.025330
    O1  O2-  1.0000  0.067650  0.202940  0.162350  Uiso  0.025330
    O1  O2-  1.0000  0.338230  0.202940  0.162350  Uiso  0.025330
    O1  O2-  1.0000  0.608810  0.202940  0.162350  Uiso  0.025330
    O1  O2-  1.0000  0.879390  0.202940  0.162350  Uiso  0.025330
    O1  O2-  1.0000  0.067650  0.473520  0.162350  Uiso  0.025330
    O1  O2-  1.0000  0.338230  0.473520  0.162350  Uiso  0.025330
    O1  O2-  1.0000  0.608810  0.473520  0.162350  Uiso  0.025330
    O1  O2-  1.0000  0.879390  0.473520  0.162350  Uiso  0.025330
    O1  O2-  1.0000  0.067650  0.744100  0.162350  Uiso  0.025330
    O1  O2-  1.0000  0.338230  0.744100  0.162350  Uiso  0.025330
    O1  O2-  1.0000  0.608810  0.744100  0.162350  Uiso  0.025330
    O1  O2-  1.0000  0.879390  0.744100  0.162350  Uiso  0.025330
    O1  O2-  1.0000  0.067650  0.202940  0.234500  Uiso  0.025330
    O1  O2-  1.0000  0.338230  0.202940  0.234500  Uiso  0.025330
    O1  O2-  1.0000  0.608810  0.202940  0.234500  Uiso  0.025330
    O1  O2-  1.0000  0.879390  0.202940  0.234500  Uiso  0.025330
    O1  O2-  1.0000  0.067650  0.473520  0.234500  Uiso  0.025330
    O1  O2-  1.0000  0.338230  0.473520  0.234500  Uiso  0.025330
    O1  O2-  1.0000  0.608810  0.473520  0.234500  Uiso  0.025330
    O1  O2-  1.0000  0.879390  0.473520  0.234500  Uiso  0.025330
    O1  O2-  1.0000  0.067650  0.744100  0.234500  Uiso  0.025330
    O1  O2-  1.0000  0.338230  0.744100  0.234500  Uiso  0.025330
    O1  O2-  1.0000  0.608810  0.744100  0.234500  Uiso  0.025330
    O1  O2-  1.0000  0.879390  0.744100  0.234500  Uiso  0.025330
    O1  O2-  1.0000  0.067650  0.202940  0.306660  Uiso  0.025330
    O1  O2-  1.0000  0.338230  0.202940  0.306660  Uiso  0.025330
    O1  O2-  1.0000  0.608810  0.202940  0.306660  Uiso  0.025330
    O1  O2-  1.0000  0.879390  0.202940  0.306660  Uiso  0.025330
    O1  O2-  1.0000  0.067650  0.473520  0.306660  Uiso  0.025330
    O1  O2-  1.0000  0.338230  0.473520  0.306660  Uiso  0.025330
    O1  O2-  1.0000  0.608810  0.473520  0.306660  Uiso  0.025330
    O1  O2-  1.0000  0.879390  0.473520  0.306660  Uiso  0.025330
    O1  O2-  1.0000  0.067650  0.744100  0.306660  Uiso  0.025330
    O1  O2-  1.0000  0.338230  0.744100  0.306660  Uiso  0.025330
    O1  O2-  1.0000  0.608810  0.744100  0.306660  Uiso  0.025330
    O1  O2-  1.0000  0.879390  0.744100  0.306660  Uiso  0.025330
    O1  O2-  1.0000  0.067650  0.202940  0.378810  Uiso  0.025330
    O1  O2-  1.0000  0.338230  0.202940  0.378810  Uiso  0.025330
    O1  O2-  1.0000  0.608810  0.202940  0.378810  Uiso  0.025330
    O1  O2-  1.0000  0.879390  0.202940  0.378810  Uiso  0.025330
    O1  O2-  1.0000  0.067650  0.473520  0.378810  Uiso  0.025330
    O1  O2-  1.0000  0.338230  0.473520  0.378810  Uiso  0.025330
    O1  O2-  1.0000  0.608810  0.473520  0.378810  Uiso  0.025330
    O1  O2-  1.0000  0.879390  0.473520  0.378810  Uiso  0.025330
    O1  O2-  1.0000  0.067650  0.744100  0.378810  Uiso  0.025330
    O1  O2-  1.0000  0.338230  0.744100  0.378810  Uiso  0.025330
    O1  O2-  1.0000  0.608810  0.744100  0.378810  Uiso  0.025330
    O1  O2-  1.0000  0.879390  0.744100  0.378810  Uiso  0.025330
    O1  O2-  1.0000  0.067650  0.202940  0.450970  Uiso  0.025330
    O1  O2-  1.0000  0.338230  0.202940  0.450970  Uiso  0.025330
    O1  O2-  1.0000  0.608810  0.202940  0.450970  Uiso  0.025330
    O1  O2-  1.0000  0.879390  0.202940  0.450970  Uiso  0.025330
    O1  O2-  1.0000  0.067650  0.473520  0.450970  Uiso  0.025330
    O1  O2-  1.0000  0.338230  0.473520  0.450970  Uiso  0.025330
    O1  O2-  1.0000  0.608810  0.473520  0.450970  Uiso  0.025330
    O1  O2-  1.0000  0.879390  0.473520  0.450970  Uiso  0.025330
    O1  O2-  1.0000  0.067650  0.744100  0.450970  Uiso  0.025330
    O1  O2-  1.0000  0.338230  0.744100  0.450970  Uiso  0.025330
    O1  O2-  1.0000  0.608810  0.744100  0.450970  Uiso  0.025330
    O1  O2-  1.0000  0.879390  0.744100  0.450970  Uiso  0.025330
    O1  O2-  1.0000  0.067650  0.202940  0.523120  Uiso  0.025330
    O1  O2-  1.0000  0.338230  0.202940  0.523120  Uiso  0.025330
    O1  O2-  1.0000  0.608810  0.202940  0.523120  Uiso  0.025330
    O1  O2-  1.0000  0.879390  0.202940  0.523120  Uiso  0.025330
    O1  O2-  1.0000  0.067650  0.473520  0.523120  Uiso  0.025330
    O1  O2-  1.0000  0.338230  0.473520  0.523120  Uiso  0.025330
    O1  O2-  1.0000  0.608810  0.473520  0.523120  Uiso  0.025330
    O1  O2-  1.0000  0.879390  0.473520  0.523120  Uiso  0.025330
    O1  O2-  1.0000  0.067650  0.744100  0.523120  Uiso  0.025330
    O1  O2-  1.0000  0.338230  0.744100  0.523120  Uiso  0.025330
    O1  O2-  1.0000  0.608810  0.744100  0.523120  Uiso  0.025330
    O1  O2-  1.0000  0.879390  0.744100  0.523120  Uiso  0.025330
    O1  O2-  1.0000  0.067650  0.202940  0.595280  Uiso  0.025330
    O1  O2-  1.0000  0.338230  0.202940  0.595280  Uiso  0.025330
    O1  O2-  1.0000  0.608810  0.202940  0.595280  Uiso  0.025330
    O1  O2-  1.0000  0.879390  0.202940  0.595280  Uiso  0.025330
    O1  O2-  1.0000  0.067650  0.473520  0.595280  Uiso  0.025330
    O1  O2-  1.0000  0.338230  0.473520  0.595280  Uiso  0.025330
    O1  O2-  1.0000  0.608810  0.473520  0.595280  Uiso  0.025330
    O1  O2-  1.0000  0.879390  0.473520  0.595280  Uiso  0.025330
    O1  O2-  1.0000  0.067650  0.744100  0.595280  Uiso  0.025330
    O1  O2-  1.0000  0.338230  0.744100  0.595280  Uiso  0.025330
    O1  O2-  1.0000  0.608810  0.744100  0.595280  Uiso  0.025330
    O1  O2-  1.0000  0.879390  0.744100  0.595280  Uiso  0.025330
    O1  O2-  1.0000  0.067650  0.202940  0.667430  Uiso  0.025330
    O1  O2-  1.0000  0.338230  0.202940  0.667430  Uiso  0.025330
    O1  O2-  1.0000  0.608810  0.202940  0.667430  Uiso  0.025330
    O1  O2-  1.0000  0.879390  0.202940  0.667430  Uiso  0.025330
    O1  O2-  1.0000  0.067650  0.473520  0.667430  Uiso  0.025330
    O1  O2-  1.0000  0.338230  0.473520  0.667430  Uiso  0.025330
    O1  O2-  1.0000  0.608810  0.473520  0.667430  Uiso  0.025330
    O1  O2-  1.0000  0.879390  0.473520  0.667430  Uiso  0.025330
    O1  O2-  1.0000  0.067650  0.744100  0.667430  Uiso  0.025330
    O1  O2-  1.0000  0.338230  0.744100  0.667430  Uiso  0.025330
    O1  O2-  1.0000  0.608810  0.744100  0.667430  Uiso  0.025330
    O1  O2-  1.0000  0.879390  0.744100  0.667430  Uiso  0.025330
    O1  O2-  1.0000  0.067650  0.202940  0.739590  Uiso  0.025330
    O1  O2-  1.0000  0.338230  0.202940  0.739590  Uiso  0.025330
    O1  O2-  1.0000  0.608810  0.202940  0.739590  Uiso  0.025330
    O1  O2-  1.0000  0.879390  0.202940  0.739590  Uiso  0.025330
    O1  O2-  1.0000  0.067650  0.473520  0.739590  Uiso  0.025330
    O1  O2-  1.0000  0.338230  0.473520  0.739590  Uiso  0.025330
    O1  O2-  1.0000  0.608810  0.473520  0.739590  Uiso  0.025330
    O1  O2-  1.0000  0.879390  0.473520  0.739590  Uiso  0.025330
    O1  O2-  1.0000  0.067650  0.744100  0.739590  Uiso  0.025330
    O1  O2-  1.0000  0.338230  0.744100  0.739590  Uiso  0.025330
    O1  O2-  1.0000  0.608810  0.744100  0.739590  Uiso  0.025330
    O1  O2-  1.0000  0.879390  0.744100  0.739590  Uiso  0.025330
    O1  O2-  1.0000  0.067650  0.202940  0.811740  Uiso  0.025330
    O1  O2-  1.0000  0.338230  0.202940  0.811740  Uiso  0.025330
    O1  O2-  1.0000  0.608810  0.202940  0.811740  Uiso  0.025330
    O1  O2-  1.0000  0.879390  0.202940  0.811740  Uiso  0.025330
    O1  O2-  1.0000  0.067650  0.473520  0.811740  Uiso  0.025330
    O1  O2-  1.0000  0.338230  0.473520  0.811740  Uiso  0.025330
    O1  O2-  1.0000  0.608810  0.473520  0.811740  Uiso  0.025330
    O1  O2-  1.0000  0.879390  0.473520  0.811740  Uiso  0.025330
    O1  O2-  1.0000  0.067650  0.744100  0.811740  Uiso  0.025330
    O1  O2-  1.0000  0.338230  0.744100  0.811740  Uiso  0.025330
    O1  O2-  1.0000  0.608810  0.744100  0.811740  Uiso  0.025330
    O1  O2-  1.0000  0.879390  0.744100  0.811740  Uiso  0.025330
    O1  O2-  1.0000  0.067650  0.202940  0.883890  Uiso  0.025330
    O1  O2-  1.0000  0.338230  0.202940  0.883890  Uiso  0.025330
    O1  O2-  1.0000  0.608810  0.202940  0.883890  Uiso  0.025330
    O1  O2-  1.0000  0.879390  0.202940  0.883890  Uiso  0.025330
    O1  O2-  1.0000  0.067650  0.473520  0.883890  Uiso  0.025330
    O1  O2-  1.0000  0.338230  0.473520  0.883890  Uiso  0.025330
    O1  O2-  1.0000  0.608810  0.473520  0.883890  Uiso  0.025330
    O1  O2-  1.0000  0.879390  0.473520  0.883890  Uiso  0.025330
    O1  O2-  1.0000  0.067650  0.744100  0.883890  Uiso  0.025330
    O1  O2-  1.0000  0.338230  0.744100  0.883890  Uiso  0.025330
    O1  O2-  1.0000  0.608810  0.744100  0.883890  Uiso  0.025330
    O1  O2-  1.0000  0.879390  0.744100  0.883890  Uiso  0.025330
    O1  O2-  1.0000  0.067650  0.202940  0.956050  Uiso  0.025330
    O1  O2-  1.0000  0.338230  0.202940  0.956050  Uiso  0.025330
    O1  O2-  1.0000  0.608810  0.202940  0.956050  Uiso  0.025330
    O1  O2-  1.0000  0.879390  0.202940  0.956050  Uiso  0.025330
    O1  O2-  1.0000  0.067650  0.473520  0.956050  Uiso  0.025330
    O1  O2-  1.0000  0.338230  0.473520  0.956050  Uiso  0.025330
    O1  O2-  1.0000  0.608810  0.473520  0.956050  Uiso  0.025330
    O1  O2-  1.0000  0.879390  0.473520  0.956050  Uiso  0.025330
    O1  O2-  1.0000  0.067650  0.744100  0.956050  Uiso  0.025330
    O1  O2-  1.0000  0.338230  0.744100  0.956050  Uiso  0.025330
    O1  O2-  1.0000  0.608810  0.744100  0.956050  Uiso  0.025330
    O1  O2-  1.0000  0.879390  0.744100  0.956050  Uiso  0.025330
    O1  O2-  1.0000  0.202940  0.202940  0.018040  Uiso  0.025330
    O1  O2-  1.0000  0.473520  0.202940  0.018040  Uiso  0.025330
    O1  O2-  1.0000  0.744100  0.202940  0.018040  Uiso  0.025330
    O1  O2-  1.0000  0.202940  0.473520  0.018040  Uiso  0.025330
    O1  O2-  1.0000  0.473520  0.473520  0.018040  Uiso  0.025330
    O1  O2-  1.0000  0.744100  0.473520  0.018040  Uiso  0.025330
    O1  O2-  1.0000  0.202940  0.744100  0.018040  Uiso  0.025330
    O1  O2-  1.0000  0.473520  0.744100  0.018040  Uiso  0.025330
    O1  O2-  1.0000  0.744100  0.744100  0.018040  Uiso  0.025330
    O1  O2-  1.0000  0.202940  0.202940  0.090190  Uiso  0.025330
    O1  O2-  1.0000  0.473520  0.202940  0.090190  Uiso  0.025330
    O1  O2-  1.0000  0.744100  0.202940  0.090190  Uiso  0.025330
    O1  O2-  1.0000  0.202940  0.473520  0.090190  Uiso  0.025330
    O1  O2-  1.0000  0.473520  0.473520  0.090190  Uiso  0.025330
    O1  O2-  1.0000  0.744100  0.473520  0.090190  Uiso  0.025330
    O1  O2-  1.0000  0.202940  0.744100  0.090190  Uiso  0.025330
    O1  O2-  1.0000  0.473520  0.744100  0.090190  Uiso  0.025330
    O1  O2-  1.0000  0.744100  0.744100  0.090190  Uiso  0.025330
    O1  O2-  1.0000  0.202940  0.202940  0.162350  Uiso  0.025330
    O1  O2-  1.0000  0.473520  0.202940  0.162350  Uiso  0.025330
    O1  O2-  1.0000  0.744100  0.202940  0.162350  Uiso  0.025330
    O1  O2-  1.0000  0.202940  0.473520  0.162350  Uiso  0.025330
    O1  O2-  1.0000  0.473520  0.473520  0.162350  Uiso  0.025330
    O1  O2-  1.0000  0.744100  0.473520  0.162350  Uiso  0.025330
    O1  O2-  1.0000  0.202940  0.744100  0.162350  Uiso  0.025330
    O1  O2-  1.0000  0.473520  0.744100  0.162350  Uiso  0.025330
    O1  O2-  1.0000  0.744100  0.744100  0.162350  Uiso  0.025330
    O1  O2-  1.0000  0.202940  0.202940  0.234500  Uiso  0.025330
    O1  O2-  1.0000  0.473520  0.202940  0.234500  Uiso  0.025330
    O1  O2-  1.0000  0.744100  0.202940  0.234500  Uiso  0.025330
    O1  O2-  1.0000  0.202940  0.473520  0.234500  Uiso  0.025330
    O1  O2-  1.0000  0.473520  0.473520  0.234500  Uiso  0.025330
    O1  O2-  1.0000  0.744100  0.473520  0.234500  Uiso  0.025330
    O1  O2-  1.0000  0.202940  0.744100  0.234500  Uiso  0.025330
    O1  O2-  1.0000  0.473520  0.744100  0.234500  Uiso  0.025330
    O1  O2-  1.0000  0.744100  0.744100  0.234500  Uiso  0.025330
    O1  O2-  1.0000  0.202940  0.202940  0.306660  Uiso  0.025330
    O1  O2-  1.0000  0.473520  0.202940  0.306660  Uiso  0.025330
    O1  O2-  1.0000  0.744100  0.202940  0.306660  Uiso  0.025330
    O1  O2-  1.0000  0.202940  0.473520  0.306660  Uiso  0.025330
    O1  O2-  1.0000  0.473520  0.473520  0.306660  Uiso  0.025330
    O1  O2-  1.0000  0.744100  0.473520  0.306660  Uiso  0.025330
    O1  O2-  1.0000  0.202940  0.744100  0.306660  Uiso  0.025330
    O1  O2-  1.0000  0.473520  0.744100  0.306660  Uiso  0.025330
    O1  O2-  1.0000  0.744100  0.744100  0.306660  Uiso  0.025330
    O1  O2-  1.0000  0.202940  0.202940  0.378810  Uiso  0.025330
    O1  O2-  1.0000  0.473520  0.202940  0.378810  Uiso  0.025330
    O1  O2-  1.0000  0.744100  0.202940  0.378810  Uiso  0.025330
    O1  O2-  1.0000  0.202940  0.473520  0.378810  Uiso  0.025330
    O1  O2-  1.0000  0.473520  0.473520  0.378810  Uiso  0.025330
    O1  O2-  1.0000  0.744100  0.473520  0.378810  Uiso  0.025330
    O1  O2-  1.0000  0.202940  0.744100  0.378810  Uiso  0.025330
    O1  O2-  1.0000  0.473520  0.744100  0.378810  Uiso  0.025330
    O1  O2-  1.0000  0.744100  0.744100  0.378810  Uiso  0.025330
    O1  O2-  1.0000  0.202940  0.202940  0.450970  Uiso  0.025330
    O1  O2-  1.0000  0.473520  0.202940  0.450970  Uiso  0.025330
    O1  O2-  1.0000  0.744100  0.202940  0.450970  Uiso  0.025330
    O1  O2-  1.0000  0.202940  0.473520  0.450970  Uiso  0.025330
    O1  O2-  1.0000  0.473520  0.473520  0.450970  Uiso  0.025330
    O1  O2-  1.0000  0.744100  0.473520  0.450970  Uiso  0.025330
    O1  O2-  1.0000  0.202940  0.744100  0.450970  Uiso  0.025330
    O1  O2-  1.0000  0.473520  0.744100  0.450970  Uiso  0.025330
    O1  O2-  1.0000  0.744100  0.744100  0.450970  Uiso  0.025330
    O1  O2-  1.0000  0.202940  0.202940  0.523120  Uiso  0.025330
    O1  O2-  1.0000  0.473520  0.202940  0.523120  Uiso  0.025330
    O1  O2-  1.0000  0.744100  0.202940  0.523120  Uiso  0.025330
    O1  O2-  1.0000  0.202940  0.473520  0.523120  Uiso  0.025330
    O1  O2-  1.0000  0.473520  0.473520  0.523120  Uiso  0.025330
    O1  O2-  1.0000  0.744100  0.473520  0.523120  Uiso  0.025330
    O1  O2-  1.0000  0.202940  0.744100  0.523120  Uiso  0.025330
    O1  O2-  1.0000  0.473520  0.744100  0.523120  Uiso  0.025330
    O1  O2-  1.0000  0.744100  0.744100  0.523120  Uiso  0.025330
    O1  O2-  1.0000  0.202940  0.202940  0.595280  Uiso  0.025330
    O1  O2-  1.0000  0.473520  0.202940  0.595280  Uiso  0.025330
    O1  O2-  1.0000  0.744100  0.202940  0.595280  Uiso  0.025330
    O1  O2-  1.0000  0.202940  0.473520  0.595280  Uiso  0.025330
    O1  O2-  1.0000  0.473520  0.473520  0.595280  Uiso  0.025330
    O1  O2-  1.0000  0.744100  0.473520  0.595280  Uiso  0.025330
    O1  O2-  1.0000  0.202940  0.744100  0.595280  Uiso  0.025330
    O1  O2-  1.0000  0.473520  0.744100  0.595280  Uiso  0.025330
    O1  O2-  1.0000  0.744100  0.744100  0.595280  Uiso  0.025330
    O1  O2-  1.0000  0.202940  0.202940  0.667430  Uiso  0.025330
    O1  O2-  1.0000  0.473520  0.202940  0.667430  Uiso  0.025330
    O1  O2-  1.0000  0.744100  0.202940  0.667430  Uiso  0.025330
    O1  O2-  1.0000  0.202940  0.473520  0.667430  Uiso  0.025330
    O1  O2-  1.0000  0.473520  0.473520  0.667430  Uiso  0.025330
    O1  O2-  1.0000  0.744100  0.473520  0.667430  Uiso  0.025330
    O1  O2-  1.0000  0.202940  0.744100  0.667430  Uiso  0.025330
    O1  O2-  1.0000  0.473520  0.744100  0.667430  Uiso  0.025330
    O1  O2-  1.0000  0.744100  0.744100  0.667430  Uiso  0.025330
    O1  O2-  1.0000  0.202940  0.202940  0.739590  Uiso  0.025330
    O1  O2-  1.0000  0.473520  0.202940  0.739590  Uiso  0.025330
    O1  O2-  1.0000  0.744100  0.202940  0.739590  Uiso  0.025330
    O1  O2-  1.0000  0.202940  0.473520  0.739590  Uiso  0.025330
    O1  O2-  1.0000  0.473520  0.473520  0.739590  Uiso  0.025330
    O1  O2-  1.0000  0.744100  0.473520  0.739590  Uiso  0.025330
    O1  O2-  1.0000  0.202940  0.744100  0.739590  Uiso  0.025330
    O1  O2-  1.0000  0.473520  0.744100  0.739590  Uiso  0.025330
    O1  O2-  1.0000  0.744100  0.744100  0.739590  Uiso  0.025330
    O1  O2-  1.0000  0.202940  0.202940  0.811740  Uiso  0.025330
    O1  O2-  1.0000  0.473520  0.202940  0.811740  Uiso  0.025330
    O1  O2-  1.0000  0.744100  0.202940  0.811740  Uiso  0.025330
    O1  O2-  1.0000  0.202940  0.473520  0.811740  Uiso  0.025330
    O1  O2-  1.0000  0.473520  0.473520  0.811740  Uiso  0.025330
    O1  O2-  1.0000  0.744100  0.473520  0.811740  Uiso  0.025330
    O1  O2-  1.0000  0.202940  0.744100  0.811740  Uiso  0.025330
    O1  O2-  1.0000  0.473520  0.744100  0.811740  Uiso  0.025330
    O1  O2-  1.0000  0.744100  0.744100  0.811740  Uiso  0.025330
    O1  O2-  1.0000  0.202940  0.202940  0.883890  Uiso  0.025330
    O1  O2-  1.0000  0.473520  0.202940  0.883890  Uiso  0.025330
    O1  O2-  1.0000  0.744100  0.202940  0.883890  Uiso  0.025330
    O1  O2-  1.0000  0.202940  0.473520  0.883890  Uiso  0.025330
    O1  O2-  1.0000  0.473520  0.473520  0.883890  Uiso  0.025330
    O1  O2-  1.0000  0.744100  0.473520  0.883890  Uiso  0.025330
    O1  O2-  1.0000  0.202940  0.744100  0.883890  Uiso  0.025330
    O1  O2-  1.0000  0.473520  0.744100  0.883890  Uiso  0.025330
    O1  O2-  1.0000  0.744100  0.744100  0.883890  Uiso  0.025330
    O1  O2-  1.0000  0.202940  0.202940  0.956050  Uiso  0.025330
    O1  O2-  1.0000  0.473520  0.202940  0.956050  Uiso  0.025330
    O1  O2-  1.0000  0.744100  0.202940  0.956050  Uiso  0.025330
    O1  O2-  1.0000  0.202940  0.473520  0.956050  Uiso  0.025330
    O1  O2-  1.0000  0.473520  0.473520  0.956050  Uiso  0.025330
    O1  O2-  1.0000  0.744100  0.473520  0.956050  Uiso  0.025330
    O1  O2-  1.0000  0.202940  0.744100  0.956050  Uiso  0.025330
    O1  O2-  1.0000  0.473520  0.744100  0.956050  Uiso  0.025330
    O1  O2-  1.0000  0.744100  0.744100  0.956050  Uiso  0.025330
    Ce1  Ce4+  1.0000  0.000000  0.135290  0.036080  Uiso  0.001267
    Ce1  Ce4+  1.0000  0.270580  0.135290  0.036080  Uiso  0.001267
    Ce1  Ce4+  1.0000  0.541160  0.135290  0.036080  Uiso  0.001267
    Ce1  Ce4+  1.0000  0.811740  0.135290  0.036080  Uiso  0.001267
    Ce1  Ce4+  1.0000  0.000000  0.405870  0.036080  Uiso  0.001267
    Ce1  Ce4+  1.0000  0.270580  0.405870  0.036080  Uiso  0.001267
    Ce1  Ce4+  1.0000  0.541160  0.405870  0.036080  Uiso  0.001267
    Ce1  Ce4+  1.0000  0.811740  0.405870  0.036080  Uiso  0.001267
    Ce1  Ce4+  1.0000  0.000000  0.676450  0.036080  Uiso  0.001267
    Ce1  Ce4+  1.0000  0.270580  0.676450  0.036080  Uiso  0.001267
    Ce1  Ce4+  1.0000  0.541160  0.676450  0.036080  Uiso  0.001267
    Ce1  Ce4+  1.0000  0.811740  0.676450  0.036080  Uiso  0.001267
    Ce1  Ce4+  1.0000  0.000000  0.947030  0.036080  Uiso  0.001267
    Ce1  Ce4+  1.0000  0.270580  0.947030  0.036080  Uiso  0.001267
    Ce1  Ce4+  1.0000  0.541160  0.947030  0.036080  Uiso  0.001267
    Ce1  Ce4+  1.0000  0.811740  0.947030  0.036080  Uiso  0.001267
    Ce1  Ce4+  1.0000  0.000000  0.135290  0.108230  Uiso  0.001267
    Ce1  Ce4+  1.0000  0.270580  0.135290  0.108230  Uiso  0.001267
    Ce1  Ce4+  1.0000  0.541160  0.135290  0.108230  Uiso  0.001267
    Ce1  Ce4+  1.0000  0.811740  0.135290  0.108230  Uiso  0.001267
    Ce1  Ce4+  1.0000  0.000000  0.405870  0.108230  Uiso  0.001267
    Ce1  Ce4+  1.0000  0.270580  0.405870  0.108230  Uiso  0.001267
    Ce1  Ce4+  1.0000  0.541160  0.405870  0.108230  Uiso  0.001267
    Ce1  Ce4+  1.0000  0.811740  0.405870  0.108230  Uiso  0.001267
    Ce1  Ce4+  1.0000  0.000000  0.676450  0.108230  Uiso  0.001267
    Ce1  Ce4+  1.0000  0.270580  0.676450  0.108230  Uiso  0.001267
    Ce1  Ce4+  1.0000  0.541160  0.676450  0.108230  Uiso  0.001267
    Ce1  Ce4+  1.0000  0.811740  0.676450  0.108230  Uiso  0.001267
    Ce1  Ce4+  1.0000  0.000000  0.947030  0.108230  Uiso  0.001267
    Ce1  Ce4+  1.0000  0.270580  0.947030  0.108230  Uiso  0.001267
    Ce1  Ce4+  1.0000  0.541160  0.947030  0.108230  Uiso  0.001267
    Ce1  Ce4+  1.0000  0.811740  0.947030  0.108230  Uiso  0.001267
    Ce1  Ce4+  1.0000  0.000000  0.135290  0.180390  Uiso  0.001267
    Ce1  Ce4+  1.0000  0.270580  0.135290  0.180390  Uiso  0.001267
    Ce1  Ce4+  1.0000  0.541160  0.135290  0.180390  Uiso  0.001267
    Ce1  Ce4+  1.0000  0.811740  0.135290  0.180390  Uiso  0.001267
    Ce1  Ce4+  1.0000  0.000000  0.405870  0.180390  Uiso  0.001267
    Ce1  Ce4+  1.0000  0.270580  0.405870  0.180390  Uiso  0.001267
    Ce1  Ce4+  1.0000  0.541160  0.405870  0.180390  Uiso  0.001267
    Ce1  Ce4+  1.0000  0.811740  0.405870  0.180390  Uiso  0.001267
    Ce1  Ce4+  1.0000  0.000000  0.676450  0.180390  Uiso  0.001267
    Ce1  Ce4+  1.0000  0.270580  0.676450  0.180390  Uiso  0.001267
    Ce1  Ce4+  1.0000  0.541160  0.676450  0.180390  Uiso  0.001267
    Ce1  Ce4+  1.0000  0.811740  0.676450  0.180390  Uiso  0.001267
    Ce1  Ce4+  1.0000  0.000000  0.947030  0.180390  Uiso  0.001267
    Ce1  Ce4+  1.0000  0.270580  0.947030  0.180390  Uiso  0.001267
    Ce1  Ce4+  1.0000  0.541160  0.947030  0.180390  Uiso  0.001267
    Ce1  Ce4+  1.0000  0.811740  0.947030  0.180390  Uiso  0.001267
    Ce1  Ce4+  1.0000  0.000000  0.135290  0.252540  Uiso  0.001267
    Ce1  Ce4+  1.0000  0.270580  0.135290  0.252540  Uiso  0.001267
    Ce1  Ce4+  1.0000  0.541160  0.135290  0.252540  Uiso  0.001267
    Ce1  Ce4+  1.0000  0.811740  0.135290  0.252540  Uiso  0.001267
    Ce1  Ce4+  1.0000  0.000000  0.405870  0.252540  Uiso  0.001267
    Ce1  Ce4+  1.0000  0.270580  0.405870  0.252540  Uiso  0.001267
    Ce1  Ce4+  1.0000  0.541160  0.405870  0.252540  Uiso  0.001267
    Ce1  Ce4+  1.0000  0.811740  0.405870  0.252540  Uiso  0.001267
    Ce1  Ce4+  1.0000  0.000000  0.676450  0.252540  Uiso  0.001267
    Ce1  Ce4+  1.0000  0.270580  0.676450  0.252540  Uiso  0.001267
    Ce1  Ce4+  1.0000  0.541160  0.676450  0.252540  Uiso  0.001267
    Ce1  Ce4+  1.0000  0.811740  0.676450  0.252540  Uiso  0.001267
    Ce1  Ce4+  1.0000  0.000000  0.947030  0.252540  Uiso  0.001267
    Ce1  Ce4+  1.0000  0.270580  0.947030  0.252540  Uiso  0.001267
    Ce1  Ce4+  1.0000  0.541160  0.947030  0.252540  Uiso  0.001267
    Ce1  Ce4+  1.0000  0.811740  0.947030  0.252540  Uiso  0.001267
    Ce1  Ce4+  1.0000  0.000000  0.135290  0.324700  Uiso  0.001267
    Ce1  Ce4+  1.0000  0.270580  0.135290  0.324700  Uiso  0.001267
    Ce1  Ce4+  1.0000  0.541160  0.135290  0.324700  Uiso  0.001267
    Ce1  Ce4+  1.0000  0.811740  0.135290  0.324700  Uiso  0.001267
    Ce1  Ce4+  1.0000  0.000000  0.405870  0.324700  Uiso  0.001267
    Ce1  Ce4+  1.0000  0.270580  0.405870  0.324700  Uiso  0.001267
    Ce1  Ce4+  1.0000  0.541160  0.405870  0.324700  Uiso  0.001267
    Ce1  Ce4+  1.0000  0.811740  0.405870  0.324700  Uiso  0.001267
    Ce1  Ce4+  1.0000  0.000000  0.676450  0.324700  Uiso  0.001267
    Ce1  Ce4+  1.0000  0.270580  0.676450  0.324700  Uiso  0.001267
    Ce1  Ce4+  1.0000  0.541160  0.676450  0.324700  Uiso  0.001267
    Ce1  Ce4+  1.0000  0.811740  0.676450  0.324700  Uiso  0.001267
    Ce1  Ce4+  1.0000  0.000000  0.947030  0.324700  Uiso  0.001267
    Ce1  Ce4+  1.0000  0.270580  0.947030  0.324700  Uiso  0.001267
    Ce1  Ce4+  1.0000  0.541160  0.947030  0.324700  Uiso  0.001267
    Ce1  Ce4+  1.0000  0.811740  0.947030  0.324700  Uiso  0.001267
    Ce1  Ce4+  1.0000  0.000000  0.135290  0.396850  Uiso  0.001267
    Ce1  Ce4+  1.0000  0.270580  0.135290  0.396850  Uiso  0.001267
    Ce1  Ce4+  1.0000  0.541160  0.135290  0.396850  Uiso  0.001267
    Ce1  Ce4+  1.0000  0.811740  0.135290  0.396850  Uiso  0.001267
    Ce1  Ce4+  1.0000  0.000000  0.405870  0.396850  Uiso  0.001267
    Ce1  Ce4+  1.0000  0.270580  0.405870  0.396850  Uiso  0.001267
    Ce1  Ce4+  1.0000  0.541160  0.405870  0.396850  Uiso  0.001267
    Ce1  Ce4+  1.0000  0.811740  0.405870  0.396850  Uiso  0.001267
    Ce1  Ce4+  1.0000  0.000000  0.676450  0.396850  Uiso  0.001267
    Ce1  Ce4+  1.0000  0.270580  0.676450  0.396850  Uiso  0.001267
    Ce1  Ce4+  1.0000  0.541160  0.676450  0.396850  Uiso  0.001267
    Ce1  Ce4+  1.0000  0.811740  0.676450  0.396850  Uiso  0.001267
    Ce1  Ce4+  1.0000  0.000000  0.947030  0.396850  Uiso  0.001267
    Ce1  Ce4+  1.0000  0.270580  0.947030  0.396850  Uiso  0.001267
    Ce1  Ce4+  1.0000  0.541160  0.947030  0.396850  Uiso  0.001267
    Ce1  Ce4+  1.0000  0.811740  0.947030  0.396850  Uiso  0.001267
    Ce1  Ce4+  1.0000  0.000000  0.135290  0.469010  Uiso  0.001267
    Ce1  Ce4+  1.0000  0.270580  0.135290  0.469010  Uiso  0.001267
    Ce1  Ce4+  1.0000  0.541160  0.135290  0.469010  Uiso  0.001267
    Ce1  Ce4+  1.0000  0.811740  0.135290  0.469010  Uiso  0.001267
    Ce1  Ce4+  1.0000  0.000000  0.405870  0.469010  Uiso  0.001267
    Ce1  Ce4+  1.0000  0.270580  0.405870  0.469010  Uiso  0.001267
    Ce1  Ce4+  1.0000  0.541160  0.405870  0.469010  Uiso  0.001267
    Ce1  Ce4+  1.0000  0.811740  0.405870  0.469010  Uiso  0.001267
    Ce1  Ce4+  1.0000  0.000000  0.676450  0.469010  Uiso  0.001267
    Ce1  Ce4+  1.0000  0.270580  0.676450  0.469010  Uiso  0.001267
    Ce1  Ce4+  1.0000  0.541160  0.676450  0.469010  Uiso  0.001267
    Ce1  Ce4+  1.0000  0.811740  0.676450  0.469010  Uiso  0.001267
    Ce1  Ce4+  1.0000  0.000000  0.947030  0.469010  Uiso  0.001267
    Ce1  Ce4+  1.0000  0.270580  0.947030  0.469010  Uiso  0.001267
    Ce1  Ce4+  1.0000  0.541160  0.947030  0.469010  Uiso  0.001267
    Ce1  Ce4+  1.0000  0.811740  0.947030  0.469010  Uiso  0.001267
    Ce1  Ce4+  1.0000  0.000000  0.135290  0.541160  Uiso  0.001267
    Ce1  Ce4+  1.0000  0.270580  0.135290  0.541160  Uiso  0.001267
    Ce1  Ce4+  1.0000  0.541160  0.135290  0.541160  Uiso  0.001267
    Ce1  Ce4+  1.0000  0.811740  0.135290  0.541160  Uiso  0.001267
    Ce1  Ce4+  1.0000  0.000000  0.405870  0.541160  Uiso  0.001267
    Ce1  Ce4+  1.0000  0.270580  0.405870  0.541160  Uiso  0.001267
    Ce1  Ce4+  1.0000  0.541160  0.405870  0.541160  Uiso  0.001267
    Ce1  Ce4+  1.0000  0.811740  0.405870  0.541160  Uiso  0.001267
    Ce1  Ce4+  1.0000  0.000000  0.676450  0.541160  Uiso  0.001267
    Ce1  Ce4+  1.0000  0.270580  0.676450  0.541160  Uiso  0.001267
    Ce1  Ce4+  1.0000  0.541160  0.676450  0.541160  Uiso  0.001267
    Ce1  Ce4+  1.0000  0.811740  0.676450  0.541160  Uiso  0.001267
    Ce1  Ce4+  1.0000  0.000000  0.947030  0.541160  Uiso  0.001267
    Ce1  Ce4+  1.0000  0.270580  0.947030  0.541160  Uiso  0.001267
    Ce1  Ce4+  1.0000  0.541160  0.947030  0.541160  Uiso  0.001267
    Ce1  Ce4+  1.0000  0.811740  0.947030  0.541160  Uiso  0.001267
    Ce1  Ce4+  1.0000  0.000000  0.135290  0.613310  Uiso  0.001267
    Ce1  Ce4+  1.0000  0.270580  0.135290  0.613310  Uiso  0.001267
    Ce1  Ce4+  1.0000  0.541160  0.135290  0.613310  Uiso  0.001267
    Ce1  Ce4+  1.0000  0.811740  0.135290  0.613310  Uiso  0.001267
    Ce1  Ce4+  1.0000  0.000000  0.405870  0.613310  Uiso  0.001267
    Ce1  Ce4+  1.0000  0.270580  0.405870  0.613310  Uiso  0.001267
    Ce1  Ce4+  1.0000  0.541160  0.405870  0.613310  Uiso  0.001267
    Ce1  Ce4+  1.0000  0.811740  0.405870  0.613310  Uiso  0.001267
    Ce1  Ce4+  1.0000  0.000000  0.676450  0.613310  Uiso  0.001267
    Ce1  Ce4+  1.0000  0.270580  0.676450  0.613310  Uiso  0.001267
    Ce1  Ce4+  1.0000  0.541160  0.676450  0.613310  Uiso  0.001267
    Ce1  Ce4+  1.0000  0.811740  0.676450  0.613310  Uiso  0.001267
    Ce1  Ce4+  1.0000  0.000000  0.947030  0.613310  Uiso  0.001267
    Ce1  Ce4+  1.0000  0.270580  0.947030  0.613310  Uiso  0.001267
    Ce1  Ce4+  1.0000  0.541160  0.947030  0.613310  Uiso  0.001267
    Ce1  Ce4+  1.0000  0.811740  0.947030  0.613310  Uiso  0.001267
    Ce1  Ce4+  1.0000  0.000000  0.135290  0.685470  Uiso  0.001267
    Ce1  Ce4+  1.0000  0.270580  0.135290  0.685470  Uiso  0.001267
    Ce1  Ce4+  1.0000  0.541160  0.135290  0.685470  Uiso  0.001267
    Ce1  Ce4+  1.0000  0.811740  0.135290  0.685470  Uiso  0.001267
    Ce1  Ce4+  1.0000  0.000000  0.405870  0.685470  Uiso  0.001267
    Ce1  Ce4+  1.0000  0.270580  0.405870  0.685470  Uiso  0.001267
    Ce1  Ce4+  1.0000  0.541160  0.405870  0.685470  Uiso  0.001267
    Ce1  Ce4+  1.0000  0.811740  0.405870  0.685470  Uiso  0.001267
    Ce1  Ce4+  1.0000  0.000000  0.676450  0.685470  Uiso  0.001267
    Ce1  Ce4+  1.0000  0.270580  0.676450  0.685470  Uiso  0.001267
    Ce1  Ce4+  1.0000  0.541160  0.676450  0.685470  Uiso  0.001267
    Ce1  Ce4+  1.0000  0.811740  0.676450  0.685470  Uiso  0.001267
    Ce1  Ce4+  1.0000  0.000000  0.947030  0.685470  Uiso  0.001267
    Ce1  Ce4+  1.0000  0.270580  0.947030  0.685470  Uiso  0.001267
    Ce1  Ce4+  1.0000  0.541160  0.947030  0.685470  Uiso  0.001267
    Ce1  Ce4+  1.0000  0.811740  0.947030  0.685470  Uiso  0.001267
    Ce1  Ce4+  1.0000  0.000000  0.135290  0.757620  Uiso  0.001267
    Ce1  Ce4+  1.0000  0.270580  0.135290  0.757620  Uiso  0.001267
    Ce1  Ce4+  1.0000  0.541160  0.135290  0.757620  Uiso  0.001267
    Ce1  Ce4+  1.0000  0.811740  0.135290  0.757620  Uiso  0.001267
    Ce1  Ce4+  1.0000  0.000000  0.405870  0.757620  Uiso  0.001267
    Ce1  Ce4+  1.0000  0.270580  0.405870  0.757620  Uiso  0.001267
    Ce1  Ce4+  1.0000  0.541160  0.405870  0.757620  Uiso  0.001267
    Ce1  Ce4+  1.0000  0.811740  0.405870  0.757620  Uiso  0.001267
    Ce1  Ce4+  1.0000  0.000000  0.676450  0.757620  Uiso  0.001267
    Ce1  Ce4+  1.0000  0.270580  0.676450  0.757620  Uiso  0.001267
    Ce1  Ce4+  1.0000  0.541160  0.676450  0.757620  Uiso  0.001267
    Ce1  Ce4+  1.0000  0.811740  0.676450  0.757620  Uiso  0.001267
    Ce1  Ce4+  1.0000  0.000000  0.947030  0.757620  Uiso  0.001267
    Ce1  Ce4+  1.0000  0.270580  0.947030  0.757620  Uiso  0.001267
    Ce1  Ce4+  1.0000  0.541160  0.947030  0.757620  Uiso  0.001267
    Ce1  Ce4+  1.0000  0.811740  0.947030  0.757620  Uiso  0.001267
    Ce1  Ce4+  1.0000  0.000000  0.135290  0.829780  Uiso  0.001267
    Ce1  Ce4+  1.0000  0.270580  0.135290  0.829780  Uiso  0.001267
    Ce1  Ce4+  1.0000  0.541160  0.135290  0.829780  Uiso  0.001267
    Ce1  Ce4+  1.0000  0.811740  0.135290  0.829780  Uiso  0.001267
    Ce1  Ce4+  1.0000  0.000000  0.405870  0.829780  Uiso  0.001267
    Ce1  Ce4+  1.0000  0.270580  0.405870  0.829780  Uiso  0.001267
    Ce1  Ce4+  1.0000  0.541160  0.405870  0.829780  Uiso  0.001267
    Ce1  Ce4+  1.0000  0.811740  0.405870  0.829780  Uiso  0.001267
    Ce1  Ce4+  1.0000  0.000000  0.676450  0.829780  Uiso  0.001267
    Ce1  Ce4+  1.0000  0.270580  0.676450  0.829780  Uiso  0.001267
    Ce1  Ce4+  1.0000  0.541160  0.676450  0.829780  Uiso  0.001267
    Ce1  Ce4+  1.0000  0.811740  0.676450  0.829780  Uiso  0.001267
    Ce1  Ce4+  1.0000  0.000000  0.947030  0.829780  Uiso  0.001267
    Ce1  Ce4+  1.0000  0.270580  0.947030  0.829780  Uiso  0.001267
    Ce1  Ce4+  1.0000  0.541160  0.947030  0.829780  Uiso  0.001267
    Ce1  Ce4+  1.0000  0.811740  0.947030  0.829780  Uiso  0.001267
    Ce1  Ce4+  1.0000  0.000000  0.135290  0.901930  Uiso  0.001267
    Ce1  Ce4+  1.0000  0.270580  0.135290  0.901930  Uiso  0.001267
    Ce1  Ce4+  1.0000  0.541160  0.135290  0.901930  Uiso  0.001267
    Ce1  Ce4+  1.0000  0.811740  0.135290  0.901930  Uiso  0.001267
    Ce1  Ce4+  1.0000  0.000000  0.405870  0.901930  Uiso  0.001267
    Ce1  Ce4+  1.0000  0.270580  0.405870  0.901930  Uiso  0.001267
    Ce1  Ce4+  1.0000  0.541160  0.405870  0.901930  Uiso  0.001267
    Ce1  Ce4+  1.0000  0.811740  0.405870  0.901930  Uiso  0.001267
    Ce1  Ce4+  1.0000  0.000000  0.676450  0.901930  Uiso  0.001267
    Ce1  Ce4+  1.0000  0.270580  0.676450  0.901930  Uiso  0.001267
    Ce1  Ce4+  1.0000  0.541160  0.676450  0.901930  Uiso  0.001267
    Ce1  Ce4+  1.0000  0.811740  0.676450  0.901930  Uiso  0.001267
    Ce1  Ce4+  1.0000  0.000000  0.947030  0.901930  Uiso  0.001267
    Ce1  Ce4+  1.0000  0.270580  0.947030  0.901930  Uiso  0.001267
    Ce1  Ce4+  1.0000  0.541160  0.947030  0.901930  Uiso  0.001267
    Ce1  Ce4+  1.0000  0.811740  0.947030  0.901930  Uiso  0.001267
    Ce1  Ce4+  1.0000  0.000000  0.135290  0.974090  Uiso  0.001267
    Ce1  Ce4+  1.0000  0.270580  0.135290  0.974090  Uiso  0.001267
    Ce1  Ce4+  1.0000  0.541160  0.135290  0.974090  Uiso  0.001267
    Ce1  Ce4+  1.0000  0.811740  0.135290  0.974090  Uiso  0.001267
    Ce1  Ce4+  1.0000  0.000000  0.405870  0.974090  Uiso  0.001267
    Ce1  Ce4+  1.0000  0.270580  0.405870  0.974090  Uiso  0.001267
    Ce1  Ce4+  1.0000  0.541160  0.405870  0.974090  Uiso  0.001267
    Ce1  Ce4+  1.0000  0.811740  0.405870  0.974090  Uiso  0.001267
    Ce1  Ce4+  1.0000  0.000000  0.676450  0.974090  Uiso  0.001267
    Ce1  Ce4+  1.0000  0.270580  0.676450  0.974090  Uiso  0.001267
    Ce1  Ce4+  1.0000  0.541160  0.676450  0.974090  Uiso  0.001267
    Ce1  Ce4+  1.0000  0.811740  0.676450  0.974090  Uiso  0.001267
    Ce1  Ce4+  1.0000  0.000000  0.947030  0.974090  Uiso  0.001267
    Ce1  Ce4+  1.0000  0.270580  0.947030  0.974090  Uiso  0.001267
    Ce1  Ce4+  1.0000  0.541160  0.947030  0.974090  Uiso  0.001267
    Ce1  Ce4+  1.0000  0.811740  0.947030  0.974090  Uiso  0.001267
    Ce1  Ce4+  1.0000  0.135290  0.135290  0.000000  Uiso  0.001267
    Ce1  Ce4+  1.0000  0.405870  0.135290  0.000000  Uiso  0.001267
    Ce1  Ce4+  1.0000  0.676450  0.135290  0.000000  Uiso  0.001267
    Ce1  Ce4+  1.0000  0.947030  0.135290  0.000000  Uiso  0.001267
    Ce1  Ce4+  1.0000  0.135290  0.405870  0.000000  Uiso  0.001267
    Ce1  Ce4+  1.0000  0.405870  0.405870  0.000000  Uiso  0.001267
    Ce1  Ce4+  1.0000  0.676450  0.405870  0.000000  Uiso  0.001267
    Ce1  Ce4+  1.0000  0.947030  0.405870  0.000000  Uiso  0.001267
    Ce1  Ce4+  1.0000  0.135290  0.676450  0.000000  Uiso  0.001267
    Ce1  Ce4+  1.0000  0.405870  0.676450  0.000000  Uiso  0.001267
    Ce1  Ce4+  1.0000  0.676450  0.676450  0.000000  Uiso  0.001267
    Ce1  Ce4+  1.0000  0.947030  0.676450  0.000000  Uiso  0.001267
    Ce1  Ce4+  1.0000  0.135290  0.947030  0.000000  Uiso  0.001267
    Ce1  Ce4+  1.0000  0.405870  0.947030  0.000000  Uiso  0.001267
    Ce1  Ce4+  1.0000  0.676450  0.947030  0.000000  Uiso  0.001267
    Ce1  Ce4+  1.0000  0.947030  0.947030  0.000000  Uiso  0.001267
    Ce1  Ce4+  1.0000  0.135290  0.135290  0.072150  Uiso  0.001267
    Ce1  Ce4+  1.0000  0.405870  0.135290  0.072150  Uiso  0.001267
    Ce1  Ce4+  1.0000  0.676450  0.135290  0.072150  Uiso  0.001267
    Ce1  Ce4+  1.0000  0.947030  0.135290  0.072150  Uiso  0.001267
    Ce1  Ce4+  1.0000  0.135290  0.405870  0.072150  Uiso  0.001267
    Ce1  Ce4+  1.0000  0.405870  0.405870  0.072150  Uiso  0.001267
    Ce1  Ce4+  1.0000  0.676450  0.405870  0.072150  Uiso  0.001267
    Ce1  Ce4+  1.0000  0.947030  0.405870  0.072150  Uiso  0.001267
    Ce1  Ce4+  1.0000  0.135290  0.676450  0.072150  Uiso  0.001267
    Ce1  Ce4+  1.0000  0.405870  0.676450  0.072150  Uiso  0.001267
    Ce1  Ce4+  1.0000  0.676450  0.676450  0.072150  Uiso  0.001267
    Ce1  Ce4+  1.0000  0.947030  0.676450  0.072150  Uiso  0.001267
    Ce1  Ce4+  1.0000  0.135290  0.947030  0.072150  Uiso  0.001267
    Ce1  Ce4+  1.0000  0.405870  0.947030  0.072150  Uiso  0.001267
    Ce1  Ce4+  1.0000  0.676450  0.947030  0.072150  Uiso  0.001267
    Ce1  Ce4+  1.0000  0.947030  0.947030  0.072150  Uiso  0.001267
    Ce1  Ce4+  1.0000  0.135290  0.135290  0.144310  Uiso  0.001267
    Ce1  Ce4+  1.0000  0.405870  0.135290  0.144310  Uiso  0.001267
    Ce1  Ce4+  1.0000  0.676450  0.135290  0.144310  Uiso  0.001267
    Ce1  Ce4+  1.0000  0.947030  0.135290  0.144310  Uiso  0.001267
    Ce1  Ce4+  1.0000  0.135290  0.405870  0.144310  Uiso  0.001267
    Ce1  Ce4+  1.0000  0.405870  0.405870  0.144310  Uiso  0.001267
    Ce1  Ce4+  1.0000  0.676450  0.405870  0.144310  Uiso  0.001267
    Ce1  Ce4+  1.0000  0.947030  0.405870  0.144310  Uiso  0.001267
    Ce1  Ce4+  1.0000  0.135290  0.676450  0.144310  Uiso  0.001267
    Ce1  Ce4+  1.0000  0.405870  0.676450  0.144310  Uiso  0.001267
    Ce1  Ce4+  1.0000  0.676450  0.676450  0.144310  Uiso  0.001267
    Ce1  Ce4+  1.0000  0.947030  0.676450  0.144310  Uiso  0.001267
    Ce1  Ce4+  1.0000  0.135290  0.947030  0.144310  Uiso  0.001267
    Ce1  Ce4+  1.0000  0.405870  0.947030  0.144310  Uiso  0.001267
    Ce1  Ce4+  1.0000  0.676450  0.947030  0.144310  Uiso  0.001267
    Ce1  Ce4+  1.0000  0.947030  0.947030  0.144310  Uiso  0.001267
    Ce1  Ce4+  1.0000  0.135290  0.135290  0.216460  Uiso  0.001267
    Ce1  Ce4+  1.0000  0.405870  0.135290  0.216460  Uiso  0.001267
    Ce1  Ce4+  1.0000  0.676450  0.135290  0.216460  Uiso  0.001267
    Ce1  Ce4+  1.0000  0.947030  0.135290  0.216460  Uiso  0.001267
    Ce1  Ce4+  1.0000  0.135290  0.405870  0.216460  Uiso  0.001267
    Ce1  Ce4+  1.0000  0.405870  0.405870  0.216460  Uiso  0.001267
    Ce1  Ce4+  1.0000  0.676450  0.405870  0.216460  Uiso  0.001267
    Ce1  Ce4+  1.0000  0.947030  0.405870  0.216460  Uiso  0.001267
    Ce1  Ce4+  1.0000  0.135290  0.676450  0.216460  Uiso  0.001267
    Ce1  Ce4+  1.0000  0.405870  0.676450  0.216460  Uiso  0.001267
    Ce1  Ce4+  1.0000  0.676450  0.676450  0.216460  Uiso  0.001267
    Ce1  Ce4+  1.0000  0.947030  0.676450  0.216460  Uiso  0.001267
    Ce1  Ce4+  1.0000  0.135290  0.947030  0.216460  Uiso  0.001267
    Ce1  Ce4+  1.0000  0.405870  0.947030  0.216460  Uiso  0.001267
    Ce1  Ce4+  1.0000  0.676450  0.947030  0.216460  Uiso  0.001267
    Ce1  Ce4+  1.0000  0.947030  0.947030  0.216460  Uiso  0.001267
    Ce1  Ce4+  1.0000  0.135290  0.135290  0.288620  Uiso  0.001267
    Ce1  Ce4+  1.0000  0.405870  0.135290  0.288620  Uiso  0.001267
    Ce1  Ce4+  1.0000  0.676450  0.135290  0.288620  Uiso  0.001267
    Ce1  Ce4+  1.0000  0.947030  0.135290  0.288620  Uiso  0.001267
    Ce1  Ce4+  1.0000  0.135290  0.405870  0.288620  Uiso  0.001267
    Ce1  Ce4+  1.0000  0.405870  0.405870  0.288620  Uiso  0.001267
    Ce1  Ce4+  1.0000  0.676450  0.405870  0.288620  Uiso  0.001267
    Ce1  Ce4+  1.0000  0.947030  0.405870  0.288620  Uiso  0.001267
    Ce1  Ce4+  1.0000  0.135290  0.676450  0.288620  Uiso  0.001267
    Ce1  Ce4+  1.0000  0.405870  0.676450  0.288620  Uiso  0.001267
    Ce1  Ce4+  1.0000  0.676450  0.676450  0.288620  Uiso  0.001267
    Ce1  Ce4+  1.0000  0.947030  0.676450  0.288620  Uiso  0.001267
    Ce1  Ce4+  1.0000  0.135290  0.947030  0.288620  Uiso  0.001267
    Ce1  Ce4+  1.0000  0.405870  0.947030  0.288620  Uiso  0.001267
    Ce1  Ce4+  1.0000  0.676450  0.947030  0.288620  Uiso  0.001267
    Ce1  Ce4+  1.0000  0.947030  0.947030  0.288620  Uiso  0.001267
    Ce1  Ce4+  1.0000  0.135290  0.135290  0.360770  Uiso  0.001267
    Ce1  Ce4+  1.0000  0.405870  0.135290  0.360770  Uiso  0.001267
    Ce1  Ce4+  1.0000  0.676450  0.135290  0.360770  Uiso  0.001267
    Ce1  Ce4+  1.0000  0.947030  0.135290  0.360770  Uiso  0.001267
    Ce1  Ce4+  1.0000  0.135290  0.405870  0.360770  Uiso  0.001267
    Ce1  Ce4+  1.0000  0.405870  0.405870  0.360770  Uiso  0.001267
    Ce1  Ce4+  1.0000  0.676450  0.405870  0.360770  Uiso  0.001267
    Ce1  Ce4+  1.0000  0.947030  0.405870  0.360770  Uiso  0.001267
    Ce1  Ce4+  1.0000  0.135290  0.676450  0.360770  Uiso  0.001267
    Ce1  Ce4+  1.0000  0.405870  0.676450  0.360770  Uiso  0.001267
    Ce1  Ce4+  1.0000  0.676450  0.676450  0.360770  Uiso  0.001267
    Ce1  Ce4+  1.0000  0.947030  0.676450  0.360770  Uiso  0.001267
    Ce1  Ce4+  1.0000  0.135290  0.947030  0.360770  Uiso  0.001267
    Ce1  Ce4+  1.0000  0.405870  0.947030  0.360770  Uiso  0.001267
    Ce1  Ce4+  1.0000  0.676450  0.947030  0.360770  Uiso  0.001267
    Ce1  Ce4+  1.0000  0.947030  0.947030  0.360770  Uiso  0.001267
    Ce1  Ce4+  1.0000  0.135290  0.135290  0.432930  Uiso  0.001267
    Ce1  Ce4+  1.0000  0.405870  0.135290  0.432930  Uiso  0.001267
    Ce1  Ce4+  1.0000  0.676450  0.135290  0.432930  Uiso  0.001267
    Ce1  Ce4+  1.0000  0.947030  0.135290  0.432930  Uiso  0.001267
    Ce1  Ce4+  1.0000  0.135290  0.405870  0.432930  Uiso  0.001267
    Ce1  Ce4+  1.0000  0.405870  0.405870  0.432930  Uiso  0.001267
    Ce1  Ce4+  1.0000  0.676450  0.405870  0.432930  Uiso  0.001267
    Ce1  Ce4+  1.0000  0.947030  0.405870  0.432930  Uiso  0.001267
    Ce1  Ce4+  1.0000  0.135290  0.676450  0.432930  Uiso  0.001267
    Ce1  Ce4+  1.0000  0.405870  0.676450  0.432930  Uiso  0.001267
    Ce1  Ce4+  1.0000  0.676450  0.676450  0.432930  Uiso  0.001267
    Ce1  Ce4+  1.0000  0.947030  0.676450  0.432930  Uiso  0.001267
    Ce1  Ce4+  1.0000  0.135290  0.947030  0.432930  Uiso  0.001267
    Ce1  Ce4+  1.0000  0.405870  0.947030  0.432930  Uiso  0.001267
    Ce1  Ce4+  1.0000  0.676450  0.947030  0.432930  Uiso  0.001267
    Ce1  Ce4+  1.0000  0.947030  0.947030  0.432930  Uiso  0.001267
    Ce1  Ce4+  1.0000  0.135290  0.135290  0.505080  Uiso  0.001267
    Ce1  Ce4+  1.0000  0.405870  0.135290  0.505080  Uiso  0.001267
    Ce1  Ce4+  1.0000  0.676450  0.135290  0.505080  Uiso  0.001267
    Ce1  Ce4+  1.0000  0.947030  0.135290  0.505080  Uiso  0.001267
    Ce1  Ce4+  1.0000  0.135290  0.405870  0.505080  Uiso  0.001267
    Ce1  Ce4+  1.0000  0.405870  0.405870  0.505080  Uiso  0.001267
    Ce1  Ce4+  1.0000  0.676450  0.405870  0.505080  Uiso  0.001267
    Ce1  Ce4+  1.0000  0.947030  0.405870  0.505080  Uiso  0.001267
    Ce1  Ce4+  1.0000  0.135290  0.676450  0.505080  Uiso  0.001267
    Ce1  Ce4+  1.0000  0.405870  0.676450  0.505080  Uiso  0.001267
    Ce1  Ce4+  1.0000  0.676450  0.676450  0.505080  Uiso  0.001267
    Ce1  Ce4+  1.0000  0.947030  0.676450  0.505080  Uiso  0.001267
    Ce1  Ce4+  1.0000  0.135290  0.947030  0.505080  Uiso  0.001267
    Ce1  Ce4+  1.0000  0.405870  0.947030  0.505080  Uiso  0.001267
    Ce1  Ce4+  1.0000  0.676450  0.947030  0.505080  Uiso  0.001267
    Ce1  Ce4+  1.0000  0.947030  0.947030  0.505080  Uiso  0.001267
    Ce1  Ce4+  1.0000  0.135290  0.135290  0.577240  Uiso  0.001267
    Ce1  Ce4+  1.0000  0.405870  0.135290  0.577240  Uiso  0.001267
    Ce1  Ce4+  1.0000  0.676450  0.135290  0.577240  Uiso  0.001267
    Ce1  Ce4+  1.0000  0.947030  0.135290  0.577240  Uiso  0.001267
    Ce1  Ce4+  1.0000  0.135290  0.405870  0.577240  Uiso  0.001267
    Ce1  Ce4+  1.0000  0.405870  0.405870  0.577240  Uiso  0.001267
    Ce1  Ce4+  1.0000  0.676450  0.405870  0.577240  Uiso  0.001267
    Ce1  Ce4+  1.0000  0.947030  0.405870  0.577240  Uiso  0.001267
    Ce1  Ce4+  1.0000  0.135290  0.676450  0.577240  Uiso  0.001267
    Ce1  Ce4+  1.0000  0.405870  0.676450  0.577240  Uiso  0.001267
    Ce1  Ce4+  1.0000  0.676450  0.676450  0.577240  Uiso  0.001267
    Ce1  Ce4+  1.0000  0.947030  0.676450  0.577240  Uiso  0.001267
    Ce1  Ce4+  1.0000  0.135290  0.947030  0.577240  Uiso  0.001267
    Ce1  Ce4+  1.0000  0.405870  0.947030  0.577240  Uiso  0.001267
    Ce1  Ce4+  1.0000  0.676450  0.947030  0.577240  Uiso  0.001267
    Ce1  Ce4+  1.0000  0.947030  0.947030  0.577240  Uiso  0.001267
    Ce1  Ce4+  1.0000  0.135290  0.135290  0.649390  Uiso  0.001267
    Ce1  Ce4+  1.0000  0.405870  0.135290  0.649390  Uiso  0.001267
    Ce1  Ce4+  1.0000  0.676450  0.135290  0.649390  Uiso  0.001267
    Ce1  Ce4+  1.0000  0.947030  0.135290  0.649390  Uiso  0.001267
    Ce1  Ce4+  1.0000  0.135290  0.405870  0.649390  Uiso  0.001267
    Ce1  Ce4+  1.0000  0.405870  0.405870  0.649390  Uiso  0.001267
    Ce1  Ce4+  1.0000  0.676450  0.405870  0.649390  Uiso  0.001267
    Ce1  Ce4+  1.0000  0.947030  0.405870  0.649390  Uiso  0.001267
    Ce1  Ce4+  1.0000  0.135290  0.676450  0.649390  Uiso  0.001267
    Ce1  Ce4+  1.0000  0.405870  0.676450  0.649390  Uiso  0.001267
    Ce1  Ce4+  1.0000  0.676450  0.676450  0.649390  Uiso  0.001267
    Ce1  Ce4+  1.0000  0.947030  0.676450  0.649390  Uiso  0.001267
    Ce1  Ce4+  1.0000  0.135290  0.947030  0.649390  Uiso  0.001267
    Ce1  Ce4+  1.0000  0.405870  0.947030  0.649390  Uiso  0.001267
    Ce1  Ce4+  1.0000  0.676450  0.947030  0.649390  Uiso  0.001267
    Ce1  Ce4+  1.0000  0.947030  0.947030  0.649390  Uiso  0.001267
    Ce1  Ce4+  1.0000  0.135290  0.135290  0.721550  Uiso  0.001267
    Ce1  Ce4+  1.0000  0.405870  0.135290  0.721550  Uiso  0.001267
    Ce1  Ce4+  1.0000  0.676450  0.135290  0.721550  Uiso  0.001267
    Ce1  Ce4+  1.0000  0.947030  0.135290  0.721550  Uiso  0.001267
    Ce1  Ce4+  1.0000  0.135290  0.405870  0.721550  Uiso  0.001267
    Ce1  Ce4+  1.0000  0.405870  0.405870  0.721550  Uiso  0.001267
    Ce1  Ce4+  1.0000  0.676450  0.405870  0.721550  Uiso  0.001267
    Ce1  Ce4+  1.0000  0.947030  0.405870  0.721550  Uiso  0.001267
    Ce1  Ce4+  1.0000  0.135290  0.676450  0.721550  Uiso  0.001267
    Ce1  Ce4+  1.0000  0.405870  0.676450  0.721550  Uiso  0.001267
    Ce1  Ce4+  1.0000  0.676450  0.676450  0.721550  Uiso  0.001267
    Ce1  Ce4+  1.0000  0.947030  0.676450  0.721550  Uiso  0.001267
    Ce1  Ce4+  1.0000  0.135290  0.947030  0.721550  Uiso  0.001267
    Ce1  Ce4+  1.0000  0.405870  0.947030  0.721550  Uiso  0.001267
    Ce1  Ce4+  1.0000  0.676450  0.947030  0.721550  Uiso  0.001267
    Ce1  Ce4+  1.0000  0.947030  0.947030  0.721550  Uiso  0.001267
    Ce1  Ce4+  1.0000  0.135290  0.135290  0.793700  Uiso  0.001267
    Ce1  Ce4+  1.0000  0.405870  0.135290  0.793700  Uiso  0.001267
    Ce1  Ce4+  1.0000  0.676450  0.135290  0.793700  Uiso  0.001267
    Ce1  Ce4+  1.0000  0.947030  0.135290  0.793700  Uiso  0.001267
    Ce1  Ce4+  1.0000  0.135290  0.405870  0.793700  Uiso  0.001267
    Ce1  Ce4+  1.0000  0.405870  0.405870  0.793700  Uiso  0.001267
    Ce1  Ce4+  1.0000  0.676450  0.405870  0.793700  Uiso  0.001267
    Ce1  Ce4+  1.0000  0.947030  0.405870  0.793700  Uiso  0.001267
    Ce1  Ce4+  1.0000  0.135290  0.676450  0.793700  Uiso  0.001267
    Ce1  Ce4+  1.0000  0.405870  0.676450  0.793700  Uiso  0.001267
    Ce1  Ce4+  1.0000  0.676450  0.676450  0.793700  Uiso  0.001267
    Ce1  Ce4+  1.0000  0.947030  0.676450  0.793700  Uiso  0.001267
    Ce1  Ce4+  1.0000  0.135290  0.947030  0.793700  Uiso  0.001267
    Ce1  Ce4+  1.0000  0.405870  0.947030  0.793700  Uiso  0.001267
    Ce1  Ce4+  1.0000  0.676450  0.947030  0.793700  Uiso  0.001267
    Ce1  Ce4+  1.0000  0.947030  0.947030  0.793700  Uiso  0.001267
    Ce1  Ce4+  1.0000  0.135290  0.135290  0.865860  Uiso  0.001267
    Ce1  Ce4+  1.0000  0.405870  0.135290  0.865860  Uiso  0.001267
    Ce1  Ce4+  1.0000  0.676450  0.135290  0.865860  Uiso  0.001267
    Ce1  Ce4+  1.0000  0.947030  0.135290  0.865860  Uiso  0.001267
    Ce1  Ce4+  1.0000  0.135290  0.405870  0.865860  Uiso  0.001267
    Ce1  Ce4+  1.0000  0.405870  0.405870  0.865860  Uiso  0.001267
    Ce1  Ce4+  1.0000  0.676450  0.405870  0.865860  Uiso  0.001267
    Ce1  Ce4+  1.0000  0.947030  0.405870  0.865860  Uiso  0.001267
    Ce1  Ce4+  1.0000  0.135290  0.676450  0.865860  Uiso  0.001267
    Ce1  Ce4+  1.0000  0.405870  0.676450  0.865860  Uiso  0.001267
    Ce1  Ce4+  1.0000  0.676450  0.676450  0.865860  Uiso  0.001267
    Ce1  Ce4+  1.0000  0.947030  0.676450  0.865860  Uiso  0.001267
    Ce1  Ce4+  1.0000  0.135290  0.947030  0.865860  Uiso  0.001267
    Ce1  Ce4+  1.0000  0.405870  0.947030  0.865860  Uiso  0.001267
    Ce1  Ce4+  1.0000  0.676450  0.947030  0.865860  Uiso  0.001267
    Ce1  Ce4+  1.0000  0.947030  0.947030  0.865860  Uiso  0.001267
    Ce1  Ce4+  1.0000  0.135290  0.135290  0.938010  Uiso  0.001267
    Ce1  Ce4+  1.0000  0.405870  0.135290  0.938010  Uiso  0.001267
    Ce1  Ce4+  1.0000  0.676450  0.135290  0.938010  Uiso  0.001267
    Ce1  Ce4+  1.0000  0.947030  0.135290  0.938010  Uiso  0.001267
    Ce1  Ce4+  1.0000  0.135290  0.405870  0.938010  Uiso  0.001267
    Ce1  Ce4+  1.0000  0.405870  0.405870  0.938010  Uiso  0.001267
    Ce1  Ce4+  1.0000  0.676450  0.405870  0.938010  Uiso  0.001267
    Ce1  Ce4+  1.0000  0.947030  0.405870  0.938010  Uiso  0.001267
    Ce1  Ce4+  1.0000  0.135290  0.676450  0.938010  Uiso  0.001267
    Ce1  Ce4+  1.0000  0.405870  0.676450  0.938010  Uiso  0.001267
    Ce1  Ce4+  1.0000  0.676450  0.676450  0.938010  Uiso  0.001267
    Ce1  Ce4+  1.0000  0.947030  0.676450  0.938010  Uiso  0.001267
    Ce1  Ce4+  1.0000  0.135290  0.947030  0.938010  Uiso  0.001267
    Ce1  Ce4+  1.0000  0.405870  0.947030  0.938010  Uiso  0.001267
    Ce1  Ce4+  1.0000  0.676450  0.947030  0.938010  Uiso  0.001267
    Ce1  Ce4+  1.0000  0.947030  0.947030  0.938010  Uiso  0.001267
    Ce1  Ce4+  1.0000  0.135290  0.000000  0.036080  Uiso  0.001267
    Ce1  Ce4+  1.0000  0.405870  0.000000  0.036080  Uiso  0.001267
    Ce1  Ce4+  1.0000  0.676450  0.000000  0.036080  Uiso  0.001267
    Ce1  Ce4+  1.0000  0.947030  0.000000  0.036080  Uiso  0.001267
    Ce1  Ce4+  1.0000  0.135290  0.270580  0.036080  Uiso  0.001267
    Ce1  Ce4+  1.0000  0.405870  0.270580  0.036080  Uiso  0.001267
    Ce1  Ce4+  1.0000  0.676450  0.270580  0.036080  Uiso  0.001267
    Ce1  Ce4+  1.0000  0.947030  0.270580  0.036080  Uiso  0.001267
    Ce1  Ce4+  1.0000  0.135290  0.541160  0.036080  Uiso  0.001267
    Ce1  Ce4+  1.0000  0.405870  0.541160  0.036080  Uiso  0.001267
    Ce1  Ce4+  1.0000  0.676450  0.541160  0.036080  Uiso  0.001267
    Ce1  Ce4+  1.0000  0.947030  0.541160  0.036080  Uiso  0.001267
    Ce1  Ce4+  1.0000  0.135290  0.811740  0.036080  Uiso  0.001267
    Ce1  Ce4+  1.0000  0.405870  0.811740  0.036080  Uiso  0.001267
    Ce1  Ce4+  1.0000  0.676450  0.811740  0.036080  Uiso  0.001267
    Ce1  Ce4+  1.0000  0.947030  0.811740  0.036080  Uiso  0.001267
    Ce1  Ce4+  1.0000  0.135290  0.000000  0.108230  Uiso  0.001267
    Ce1  Ce4+  1.0000  0.405870  0.000000  0.108230  Uiso  0.001267
    Ce1  Ce4+  1.0000  0.676450  0.000000  0.108230  Uiso  0.001267
    Ce1  Ce4+  1.0000  0.947030  0.000000  0.108230  Uiso  0.001267
    Ce1  Ce4+  1.0000  0.135290  0.270580  0.108230  Uiso  0.001267
    Ce1  Ce4+  1.0000  0.405870  0.270580  0.108230  Uiso  0.001267
    Ce1  Ce4+  1.0000  0.676450  0.270580  0.108230  Uiso  0.001267
    Ce1  Ce4+  1.0000  0.947030  0.270580  0.108230  Uiso  0.001267
    Ce1  Ce4+  1.0000  0.135290  0.541160  0.108230  Uiso  0.001267
    Ce1  Ce4+  1.0000  0.405870  0.541160  0.108230  Uiso  0.001267
    Ce1  Ce4+  1.0000  0.676450  0.541160  0.108230  Uiso  0.001267
    Ce1  Ce4+  1.0000  0.947030  0.541160  0.108230  Uiso  0.001267
    Ce1  Ce4+  1.0000  0.135290  0.811740  0.108230  Uiso  0.001267
    Ce1  Ce4+  1.0000  0.405870  0.811740  0.108230  Uiso  0.001267
    Ce1  Ce4+  1.0000  0.676450  0.811740  0.108230  Uiso  0.001267
    Ce1  Ce4+  1.0000  0.947030  0.811740  0.108230  Uiso  0.001267
    Ce1  Ce4+  1.0000  0.135290  0.000000  0.180390  Uiso  0.001267
    Ce1  Ce4+  1.0000  0.405870  0.000000  0.180390  Uiso  0.001267
    Ce1  Ce4+  1.0000  0.676450  0.000000  0.180390  Uiso  0.001267
    Ce1  Ce4+  1.0000  0.947030  0.000000  0.180390  Uiso  0.001267
    Ce1  Ce4+  1.0000  0.135290  0.270580  0.180390  Uiso  0.001267
    Ce1  Ce4+  1.0000  0.405870  0.270580  0.180390  Uiso  0.001267
    Ce1  Ce4+  1.0000  0.676450  0.270580  0.180390  Uiso  0.001267
    Ce1  Ce4+  1.0000  0.947030  0.270580  0.180390  Uiso  0.001267
    Ce1  Ce4+  1.0000  0.135290  0.541160  0.180390  Uiso  0.001267
    Ce1  Ce4+  1.0000  0.405870  0.541160  0.180390  Uiso  0.001267
    Ce1  Ce4+  1.0000  0.676450  0.541160  0.180390  Uiso  0.001267
    Ce1  Ce4+  1.0000  0.947030  0.541160  0.180390  Uiso  0.001267
    Ce1  Ce4+  1.0000  0.135290  0.811740  0.180390  Uiso  0.001267
    Ce1  Ce4+  1.0000  0.405870  0.811740  0.180390  Uiso  0.001267
    Ce1  Ce4+  1.0000  0.676450  0.811740  0.180390  Uiso  0.001267
    Ce1  Ce4+  1.0000  0.947030  0.811740  0.180390  Uiso  0.001267
    Ce1  Ce4+  1.0000  0.135290  0.000000  0.252540  Uiso  0.001267
    Ce1  Ce4+  1.0000  0.405870  0.000000  0.252540  Uiso  0.001267
    Ce1  Ce4+  1.0000  0.676450  0.000000  0.252540  Uiso  0.001267
    Ce1  Ce4+  1.0000  0.947030  0.000000  0.252540  Uiso  0.001267
    Ce1  Ce4+  1.0000  0.135290  0.270580  0.252540  Uiso  0.001267
    Ce1  Ce4+  1.0000  0.405870  0.270580  0.252540  Uiso  0.001267
    Ce1  Ce4+  1.0000  0.676450  0.270580  0.252540  Uiso  0.001267
    Ce1  Ce4+  1.0000  0.947030  0.270580  0.252540  Uiso  0.001267
    Ce1  Ce4+  1.0000  0.135290  0.541160  0.252540  Uiso  0.001267
    Ce1  Ce4+  1.0000  0.405870  0.541160  0.252540  Uiso  0.001267
    Ce1  Ce4+  1.0000  0.676450  0.541160  0.252540  Uiso  0.001267
    Ce1  Ce4+  1.0000  0.947030  0.541160  0.252540  Uiso  0.001267
    Ce1  Ce4+  1.0000  0.135290  0.811740  0.252540  Uiso  0.001267
    Ce1  Ce4+  1.0000  0.405870  0.811740  0.252540  Uiso  0.001267
    Ce1  Ce4+  1.0000  0.676450  0.811740  0.252540  Uiso  0.001267
    Ce1  Ce4+  1.0000  0.947030  0.811740  0.252540  Uiso  0.001267
    Ce1  Ce4+  1.0000  0.135290  0.000000  0.324700  Uiso  0.001267
    Ce1  Ce4+  1.0000  0.405870  0.000000  0.324700  Uiso  0.001267
    Ce1  Ce4+  1.0000  0.676450  0.000000  0.324700  Uiso  0.001267
    Ce1  Ce4+  1.0000  0.947030  0.000000  0.324700  Uiso  0.001267
    Ce1  Ce4+  1.0000  0.135290  0.270580  0.324700  Uiso  0.001267
    Ce1  Ce4+  1.0000  0.405870  0.270580  0.324700  Uiso  0.001267
    Ce1  Ce4+  1.0000  0.676450  0.270580  0.324700  Uiso  0.001267
    Ce1  Ce4+  1.0000  0.947030  0.270580  0.324700  Uiso  0.001267
    Ce1  Ce4+  1.0000  0.135290  0.541160  0.324700  Uiso  0.001267
    Ce1  Ce4+  1.0000  0.405870  0.541160  0.324700  Uiso  0.001267
    Ce1  Ce4+  1.0000  0.676450  0.541160  0.324700  Uiso  0.001267
    Ce1  Ce4+  1.0000  0.947030  0.541160  0.324700  Uiso  0.001267
    Ce1  Ce4+  1.0000  0.135290  0.811740  0.324700  Uiso  0.001267
    Ce1  Ce4+  1.0000  0.405870  0.811740  0.324700  Uiso  0.001267
    Ce1  Ce4+  1.0000  0.676450  0.811740  0.324700  Uiso  0.001267
    Ce1  Ce4+  1.0000  0.947030  0.811740  0.324700  Uiso  0.001267
    Ce1  Ce4+  1.0000  0.135290  0.000000  0.396850  Uiso  0.001267
    Ce1  Ce4+  1.0000  0.405870  0.000000  0.396850  Uiso  0.001267
    Ce1  Ce4+  1.0000  0.676450  0.000000  0.396850  Uiso  0.001267
    Ce1  Ce4+  1.0000  0.947030  0.000000  0.396850  Uiso  0.001267
    Ce1  Ce4+  1.0000  0.135290  0.270580  0.396850  Uiso  0.001267
    Ce1  Ce4+  1.0000  0.405870  0.270580  0.396850  Uiso  0.001267
    Ce1  Ce4+  1.0000  0.676450  0.270580  0.396850  Uiso  0.001267
    Ce1  Ce4+  1.0000  0.947030  0.270580  0.396850  Uiso  0.001267
    Ce1  Ce4+  1.0000  0.135290  0.541160  0.396850  Uiso  0.001267
    Ce1  Ce4+  1.0000  0.405870  0.541160  0.396850  Uiso  0.001267
    Ce1  Ce4+  1.0000  0.676450  0.541160  0.396850  Uiso  0.001267
    Ce1  Ce4+  1.0000  0.947030  0.541160  0.396850  Uiso  0.001267
    Ce1  Ce4+  1.0000  0.135290  0.811740  0.396850  Uiso  0.001267
    Ce1  Ce4+  1.0000  0.405870  0.811740  0.396850  Uiso  0.001267
    Ce1  Ce4+  1.0000  0.676450  0.811740  0.396850  Uiso  0.001267
    Ce1  Ce4+  1.0000  0.947030  0.811740  0.396850  Uiso  0.001267
    Ce1  Ce4+  1.0000  0.135290  0.000000  0.469010  Uiso  0.001267
    Ce1  Ce4+  1.0000  0.405870  0.000000  0.469010  Uiso  0.001267
    Ce1  Ce4+  1.0000  0.676450  0.000000  0.469010  Uiso  0.001267
    Ce1  Ce4+  1.0000  0.947030  0.000000  0.469010  Uiso  0.001267
    Ce1  Ce4+  1.0000  0.135290  0.270580  0.469010  Uiso  0.001267
    Ce1  Ce4+  1.0000  0.405870  0.270580  0.469010  Uiso  0.001267
    Ce1  Ce4+  1.0000  0.676450  0.270580  0.469010  Uiso  0.001267
    Ce1  Ce4+  1.0000  0.947030  0.270580  0.469010  Uiso  0.001267
    Ce1  Ce4+  1.0000  0.135290  0.541160  0.469010  Uiso  0.001267
    Ce1  Ce4+  1.0000  0.405870  0.541160  0.469010  Uiso  0.001267
    Ce1  Ce4+  1.0000  0.676450  0.541160  0.469010  Uiso  0.001267
    Ce1  Ce4+  1.0000  0.947030  0.541160  0.469010  Uiso  0.001267
    Ce1  Ce4+  1.0000  0.135290  0.811740  0.469010  Uiso  0.001267
    Ce1  Ce4+  1.0000  0.405870  0.811740  0.469010  Uiso  0.001267
    Ce1  Ce4+  1.0000  0.676450  0.811740  0.469010  Uiso  0.001267
    Ce1  Ce4+  1.0000  0.947030  0.811740  0.469010  Uiso  0.001267
    Ce1  Ce4+  1.0000  0.135290  0.000000  0.541160  Uiso  0.001267
    Ce1  Ce4+  1.0000  0.405870  0.000000  0.541160  Uiso  0.001267
    Ce1  Ce4+  1.0000  0.676450  0.000000  0.541160  Uiso  0.001267
    Ce1  Ce4+  1.0000  0.947030  0.000000  0.541160  Uiso  0.001267
    Ce1  Ce4+  1.0000  0.135290  0.270580  0.541160  Uiso  0.001267
    Ce1  Ce4+  1.0000  0.405870  0.270580  0.541160  Uiso  0.001267
    Ce1  Ce4+  1.0000  0.676450  0.270580  0.541160  Uiso  0.001267
    Ce1  Ce4+  1.0000  0.947030  0.270580  0.541160  Uiso  0.001267
    Ce1  Ce4+  1.0000  0.135290  0.541160  0.541160  Uiso  0.001267
    Ce1  Ce4+  1.0000  0.405870  0.541160  0.541160  Uiso  0.001267
    Ce1  Ce4+  1.0000  0.676450  0.541160  0.541160  Uiso  0.001267
    Ce1  Ce4+  1.0000  0.947030  0.541160  0.541160  Uiso  0.001267
    Ce1  Ce4+  1.0000  0.135290  0.811740  0.541160  Uiso  0.001267
    Ce1  Ce4+  1.0000  0.405870  0.811740  0.541160  Uiso  0.001267
    Ce1  Ce4+  1.0000  0.676450  0.811740  0.541160  Uiso  0.001267
    Ce1  Ce4+  1.0000  0.947030  0.811740  0.541160  Uiso  0.001267
    Ce1  Ce4+  1.0000  0.135290  0.000000  0.613310  Uiso  0.001267
    Ce1  Ce4+  1.0000  0.405870  0.000000  0.613310  Uiso  0.001267
    Ce1  Ce4+  1.0000  0.676450  0.000000  0.613310  Uiso  0.001267
    Ce1  Ce4+  1.0000  0.947030  0.000000  0.613310  Uiso  0.001267
    Ce1  Ce4+  1.0000  0.135290  0.270580  0.613310  Uiso  0.001267
    Ce1  Ce4+  1.0000  0.405870  0.270580  0.613310  Uiso  0.001267
    Ce1  Ce4+  1.0000  0.676450  0.270580  0.613310  Uiso  0.001267
    Ce1  Ce4+  1.0000  0.947030  0.270580  0.613310  Uiso  0.001267
    Ce1  Ce4+  1.0000  0.135290  0.541160  0.613310  Uiso  0.001267
    Ce1  Ce4+  1.0000  0.405870  0.541160  0.613310  Uiso  0.001267
    Ce1  Ce4+  1.0000  0.676450  0.541160  0.613310  Uiso  0.001267
    Ce1  Ce4+  1.0000  0.947030  0.541160  0.613310  Uiso  0.001267
    Ce1  Ce4+  1.0000  0.135290  0.811740  0.613310  Uiso  0.001267
    Ce1  Ce4+  1.0000  0.405870  0.811740  0.613310  Uiso  0.001267
    Ce1  Ce4+  1.0000  0.676450  0.811740  0.613310  Uiso  0.001267
    Ce1  Ce4+  1.0000  0.947030  0.811740  0.613310  Uiso  0.001267
    Ce1  Ce4+  1.0000  0.135290  0.000000  0.685470  Uiso  0.001267
    Ce1  Ce4+  1.0000  0.405870  0.000000  0.685470  Uiso  0.001267
    Ce1  Ce4+  1.0000  0.676450  0.000000  0.685470  Uiso  0.001267
    Ce1  Ce4+  1.0000  0.947030  0.000000  0.685470  Uiso  0.001267
    Ce1  Ce4+  1.0000  0.135290  0.270580  0.685470  Uiso  0.001267
    Ce1  Ce4+  1.0000  0.405870  0.270580  0.685470  Uiso  0.001267
    Ce1  Ce4+  1.0000  0.676450  0.270580  0.685470  Uiso  0.001267
    Ce1  Ce4+  1.0000  0.947030  0.270580  0.685470  Uiso  0.001267
    Ce1  Ce4+  1.0000  0.135290  0.541160  0.685470  Uiso  0.001267
    Ce1  Ce4+  1.0000  0.405870  0.541160  0.685470  Uiso  0.001267
    Ce1  Ce4+  1.0000  0.676450  0.541160  0.685470  Uiso  0.001267
    Ce1  Ce4+  1.0000  0.947030  0.541160  0.685470  Uiso  0.001267
    Ce1  Ce4+  1.0000  0.135290  0.811740  0.685470  Uiso  0.001267
    Ce1  Ce4+  1.0000  0.405870  0.811740  0.685470  Uiso  0.001267
    Ce1  Ce4+  1.0000  0.676450  0.811740  0.685470  Uiso  0.001267
    Ce1  Ce4+  1.0000  0.947030  0.811740  0.685470  Uiso  0.001267
    Ce1  Ce4+  1.0000  0.135290  0.000000  0.757620  Uiso  0.001267
    Ce1  Ce4+  1.0000  0.405870  0.000000  0.757620  Uiso  0.001267
    Ce1  Ce4+  1.0000  0.676450  0.000000  0.757620  Uiso  0.001267
    Ce1  Ce4+  1.0000  0.947030  0.000000  0.757620  Uiso  0.001267
    Ce1  Ce4+  1.0000  0.135290  0.270580  0.757620  Uiso  0.001267
    Ce1  Ce4+  1.0000  0.405870  0.270580  0.757620  Uiso  0.001267
    Ce1  Ce4+  1.0000  0.676450  0.270580  0.757620  Uiso  0.001267
    Ce1  Ce4+  1.0000  0.947030  0.270580  0.757620  Uiso  0.001267
    Ce1  Ce4+  1.0000  0.135290  0.541160  0.757620  Uiso  0.001267
    Ce1  Ce4+  1.0000  0.405870  0.541160  0.757620  Uiso  0.001267
    Ce1  Ce4+  1.0000  0.676450  0.541160  0.757620  Uiso  0.001267
    Ce1  Ce4+  1.0000  0.947030  0.541160  0.757620  Uiso  0.001267
    Ce1  Ce4+  1.0000  0.135290  0.811740  0.757620  Uiso  0.001267
    Ce1  Ce4+  1.0000  0.405870  0.811740  0.757620  Uiso  0.001267
    Ce1  Ce4+  1.0000  0.676450  0.811740  0.757620  Uiso  0.001267
    Ce1  Ce4+  1.0000  0.947030  0.811740  0.757620  Uiso  0.001267
    Ce1  Ce4+  1.0000  0.135290  0.000000  0.829780  Uiso  0.001267
    Ce1  Ce4+  1.0000  0.405870  0.000000  0.829780  Uiso  0.001267
    Ce1  Ce4+  1.0000  0.676450  0.000000  0.829780  Uiso  0.001267
    Ce1  Ce4+  1.0000  0.947030  0.000000  0.829780  Uiso  0.001267
    Ce1  Ce4+  1.0000  0.135290  0.270580  0.829780  Uiso  0.001267
    Ce1  Ce4+  1.0000  0.405870  0.270580  0.829780  Uiso  0.001267
    Ce1  Ce4+  1.0000  0.676450  0.270580  0.829780  Uiso  0.001267
    Ce1  Ce4+  1.0000  0.947030  0.270580  0.829780  Uiso  0.001267
    Ce1  Ce4+  1.0000  0.135290  0.541160  0.829780  Uiso  0.001267
    Ce1  Ce4+  1.0000  0.405870  0.541160  0.829780  Uiso  0.001267
    Ce1  Ce4+  1.0000  0.676450  0.541160  0.829780  Uiso  0.001267
    Ce1  Ce4+  1.0000  0.947030  0.541160  0.829780  Uiso  0.001267
    Ce1  Ce4+  1.0000  0.135290  0.811740  0.829780  Uiso  0.001267
    Ce1  Ce4+  1.0000  0.405870  0.811740  0.829780  Uiso  0.001267
    Ce1  Ce4+  1.0000  0.676450  0.811740  0.829780  Uiso  0.001267
    Ce1  Ce4+  1.0000  0.947030  0.811740  0.829780  Uiso  0.001267
    Ce1  Ce4+  1.0000  0.135290  0.000000  0.901930  Uiso  0.001267
    Ce1  Ce4+  1.0000  0.405870  0.000000  0.901930  Uiso  0.001267
    Ce1  Ce4+  1.0000  0.676450  0.000000  0.901930  Uiso  0.001267
    Ce1  Ce4+  1.0000  0.947030  0.000000  0.901930  Uiso  0.001267
    Ce1  Ce4+  1.0000  0.135290  0.270580  0.901930  Uiso  0.001267
    Ce1  Ce4+  1.0000  0.405870  0.270580  0.901930  Uiso  0.001267
    Ce1  Ce4+  1.0000  0.676450  0.270580  0.901930  Uiso  0.001267
    Ce1  Ce4+  1.0000  0.947030  0.270580  0.901930  Uiso  0.001267
    Ce1  Ce4+  1.0000  0.135290  0.541160  0.901930  Uiso  0.001267
    Ce1  Ce4+  1.0000  0.405870  0.541160  0.901930  Uiso  0.001267
    Ce1  Ce4+  1.0000  0.676450  0.541160  0.901930  Uiso  0.001267
    Ce1  Ce4+  1.0000  0.947030  0.541160  0.901930  Uiso  0.001267
    Ce1  Ce4+  1.0000  0.135290  0.811740  0.901930  Uiso  0.001267
    Ce1  Ce4+  1.0000  0.405870  0.811740  0.901930  Uiso  0.001267
    Ce1  Ce4+  1.0000  0.676450  0.811740  0.901930  Uiso  0.001267
    Ce1  Ce4+  1.0000  0.947030  0.811740  0.901930  Uiso  0.001267
    Ce1  Ce4+  1.0000  0.135290  0.000000  0.974090  Uiso  0.001267
    Ce1  Ce4+  1.0000  0.405870  0.000000  0.974090  Uiso  0.001267
    Ce1  Ce4+  1.0000  0.676450  0.000000  0.974090  Uiso  0.001267
    Ce1  Ce4+  1.0000  0.947030  0.000000  0.974090  Uiso  0.001267
    Ce1  Ce4+  1.0000  0.135290  0.270580  0.974090  Uiso  0.001267
    Ce1  Ce4+  1.0000  0.405870  0.270580  0.974090  Uiso  0.001267
    Ce1  Ce4+  1.0000  0.676450  0.270580  0.974090  Uiso  0.001267
    Ce1  Ce4+  1.0000  0.947030  0.270580  0.974090  Uiso  0.001267
    Ce1  Ce4+  1.0000  0.135290  0.541160  0.974090  Uiso  0.001267
    Ce1  Ce4+  1.0000  0.405870  0.541160  0.974090  Uiso  0.001267
    Ce1  Ce4+  1.0000  0.676450  0.541160  0.974090  Uiso  0.001267
    Ce1  Ce4+  1.0000  0.947030  0.541160  0.974090  Uiso  0.001267
    Ce1  Ce4+  1.0000  0.135290  0.811740  0.974090  Uiso  0.001267
    Ce1  Ce4+  1.0000  0.405870  0.811740  0.974090  Uiso  0.001267
    Ce1  Ce4+  1.0000  0.676450  0.811740  0.974090  Uiso  0.001267
    Ce1  Ce4+  1.0000  0.947030  0.811740  0.974090  Uiso  0.001267

# End of data_CELSLC
