#\#CIF_2.0
data_CELSLC

# Crystal data
_pd_phase_name                         'Super Cell'
_cell_length_a                         20.000000
_cell_length_b                         20.000000
_cell_length_c                         160.000000
_cell_angle_alpha                      90.0000
_cell_angle_beta                       90.0000
_cell_angle_gamma                      90.0000
_symmetry_space_group_name_H-M_alt     'P 1'
_symmetry_Int_Tables_number            1

# Symmetry operations
loop_
    _space_group_symop_id
    _space_group_symop_operation_xyz
    1    'x,y,z'

# Atomic types
loop_
    _atom_site_type_symbol
    _atom_type_oxidation_number
    Ce4+  4.0000
    O2-  -2.0000

# Atomic sites
loop_
    _atom_site_label
    _atom_site_type_symbol
    _atom_site_occupancy
    _atom_site_fract_x
    _atom_site_fract_y
    _atom_site_fract_z
    _atom_site_thermal_displace_type
    _atom_site_U_iso_or_equiv
    Ce1  Ce4+  1.0000  0.000000  0.000000  0.000000  Uiso  0.001267
    Ce1  Ce4+  1.0000  0.268450  0.033880  0.000000  Uiso  0.001267
    Ce1  Ce4+  1.0000  0.536900  0.067770  0.000000  Uiso  0.001267
    Ce1  Ce4+  1.0000  0.805350  0.101650  0.000000  Uiso  0.001267
    Ce1  Ce4+  1.0000  0.234570  0.302330  0.000000  Uiso  0.001267
    Ce1  Ce4+  1.0000  0.503020  0.336220  0.000000  Uiso  0.001267
    Ce1  Ce4+  1.0000  0.771470  0.370100  0.000000  Uiso  0.001267
    Ce1  Ce4+  1.0000  0.200680  0.570780  0.000000  Uiso  0.001267
    Ce1  Ce4+  1.0000  0.469130  0.604670  0.000000  Uiso  0.001267
    Ce1  Ce4+  1.0000  0.737580  0.638550  0.000000  Uiso  0.001267
    Ce1  Ce4+  1.0000  0.166800  0.839230  0.000000  Uiso  0.001267
    Ce1  Ce4+  1.0000  0.435250  0.873120  0.000000  Uiso  0.001267
    Ce1  Ce4+  1.0000  0.703700  0.907000  0.000000  Uiso  0.001267
    Ce1  Ce4+  1.0000  0.972150  0.940880  0.000000  Uiso  0.001267
    Ce1  Ce4+  1.0000  0.000000  0.000000  0.033820  Uiso  0.001267
    Ce1  Ce4+  1.0000  0.268450  0.033880  0.033820  Uiso  0.001267
    Ce1  Ce4+  1.0000  0.536900  0.067770  0.033820  Uiso  0.001267
    Ce1  Ce4+  1.0000  0.805350  0.101650  0.033820  Uiso  0.001267
    Ce1  Ce4+  1.0000  0.234570  0.302330  0.033820  Uiso  0.001267
    Ce1  Ce4+  1.0000  0.503020  0.336220  0.033820  Uiso  0.001267
    Ce1  Ce4+  1.0000  0.771470  0.370100  0.033820  Uiso  0.001267
    Ce1  Ce4+  1.0000  0.200680  0.570780  0.033820  Uiso  0.001267
    Ce1  Ce4+  1.0000  0.469130  0.604670  0.033820  Uiso  0.001267
    Ce1  Ce4+  1.0000  0.737580  0.638550  0.033820  Uiso  0.001267
    Ce1  Ce4+  1.0000  0.166800  0.839230  0.033820  Uiso  0.001267
    Ce1  Ce4+  1.0000  0.435250  0.873120  0.033820  Uiso  0.001267
    Ce1  Ce4+  1.0000  0.703700  0.907000  0.033820  Uiso  0.001267
    Ce1  Ce4+  1.0000  0.972150  0.940880  0.033820  Uiso  0.001267
    Ce1  Ce4+  1.0000  0.000000  0.000000  0.067650  Uiso  0.001267
    Ce1  Ce4+  1.0000  0.268450  0.033880  0.067650  Uiso  0.001267
    Ce1  Ce4+  1.0000  0.536900  0.067770  0.067650  Uiso  0.001267
    Ce1  Ce4+  1.0000  0.805350  0.101650  0.067650  Uiso  0.001267
    Ce1  Ce4+  1.0000  0.234570  0.302330  0.067650  Uiso  0.001267
    Ce1  Ce4+  1.0000  0.503020  0.336220  0.067650  Uiso  0.001267
    Ce1  Ce4+  1.0000  0.771470  0.370100  0.067650  Uiso  0.001267
    Ce1  Ce4+  1.0000  0.200680  0.570780  0.067650  Uiso  0.001267
    Ce1  Ce4+  1.0000  0.469130  0.604670  0.067650  Uiso  0.001267
    Ce1  Ce4+  1.0000  0.737580  0.638550  0.067650  Uiso  0.001267
    Ce1  Ce4+  1.0000  0.166800  0.839230  0.067650  Uiso  0.001267
    Ce1  Ce4+  1.0000  0.435250  0.873120  0.067650  Uiso  0.001267
    Ce1  Ce4+  1.0000  0.703700  0.907000  0.067650  Uiso  0.001267
    Ce1  Ce4+  1.0000  0.972150  0.940880  0.067650  Uiso  0.001267
    Ce1  Ce4+  1.0000  0.000000  0.000000  0.101470  Uiso  0.001267
    Ce1  Ce4+  1.0000  0.268450  0.033880  0.101470  Uiso  0.001267
    Ce1  Ce4+  1.0000  0.536900  0.067770  0.101470  Uiso  0.001267
    Ce1  Ce4+  1.0000  0.805350  0.101650  0.101470  Uiso  0.001267
    Ce1  Ce4+  1.0000  0.234570  0.302330  0.101470  Uiso  0.001267
    Ce1  Ce4+  1.0000  0.503020  0.336220  0.101470  Uiso  0.001267
    Ce1  Ce4+  1.0000  0.771470  0.370100  0.101470  Uiso  0.001267
    Ce1  Ce4+  1.0000  0.200680  0.570780  0.101470  Uiso  0.001267
    Ce1  Ce4+  1.0000  0.469130  0.604670  0.101470  Uiso  0.001267
    Ce1  Ce4+  1.0000  0.737580  0.638550  0.101470  Uiso  0.001267
    Ce1  Ce4+  1.0000  0.166800  0.839230  0.101470  Uiso  0.001267
    Ce1  Ce4+  1.0000  0.435250  0.873120  0.101470  Uiso  0.001267
    Ce1  Ce4+  1.0000  0.703700  0.907000  0.101470  Uiso  0.001267
    Ce1  Ce4+  1.0000  0.972150  0.940880  0.101470  Uiso  0.001267
    Ce1  Ce4+  1.0000  0.000000  0.000000  0.135290  Uiso  0.001267
    Ce1  Ce4+  1.0000  0.268450  0.033880  0.135290  Uiso  0.001267
    Ce1  Ce4+  1.0000  0.536900  0.067770  0.135290  Uiso  0.001267
    Ce1  Ce4+  1.0000  0.805350  0.101650  0.135290  Uiso  0.001267
    Ce1  Ce4+  1.0000  0.234570  0.302330  0.135290  Uiso  0.001267
    Ce1  Ce4+  1.0000  0.503020  0.336220  0.135290  Uiso  0.001267
    Ce1  Ce4+  1.0000  0.771470  0.370100  0.135290  Uiso  0.001267
    Ce1  Ce4+  1.0000  0.200680  0.570780  0.135290  Uiso  0.001267
    Ce1  Ce4+  1.0000  0.469130  0.604670  0.135290  Uiso  0.001267
    Ce1  Ce4+  1.0000  0.737580  0.638550  0.135290  Uiso  0.001267
    Ce1  Ce4+  1.0000  0.166800  0.839230  0.135290  Uiso  0.001267
    Ce1  Ce4+  1.0000  0.435250  0.873120  0.135290  Uiso  0.001267
    Ce1  Ce4+  1.0000  0.703700  0.907000  0.135290  Uiso  0.001267
    Ce1  Ce4+  1.0000  0.972150  0.940880  0.135290  Uiso  0.001267
    Ce1  Ce4+  1.0000  0.000000  0.000000  0.169110  Uiso  0.001267
    Ce1  Ce4+  1.0000  0.268450  0.033880  0.169110  Uiso  0.001267
    Ce1  Ce4+  1.0000  0.536900  0.067770  0.169110  Uiso  0.001267
    Ce1  Ce4+  1.0000  0.805350  0.101650  0.169110  Uiso  0.001267
    Ce1  Ce4+  1.0000  0.234570  0.302330  0.169110  Uiso  0.001267
    Ce1  Ce4+  1.0000  0.503020  0.336220  0.169110  Uiso  0.001267
    Ce1  Ce4+  1.0000  0.771470  0.370100  0.169110  Uiso  0.001267
    Ce1  Ce4+  1.0000  0.200680  0.570780  0.169110  Uiso  0.001267
    Ce1  Ce4+  1.0000  0.469130  0.604670  0.169110  Uiso  0.001267
    Ce1  Ce4+  1.0000  0.737580  0.638550  0.169110  Uiso  0.001267
    Ce1  Ce4+  1.0000  0.166800  0.839230  0.169110  Uiso  0.001267
    Ce1  Ce4+  1.0000  0.435250  0.873120  0.169110  Uiso  0.001267
    Ce1  Ce4+  1.0000  0.703700  0.907000  0.169110  Uiso  0.001267
    Ce1  Ce4+  1.0000  0.972150  0.940880  0.169110  Uiso  0.001267
    Ce1  Ce4+  1.0000  0.000000  0.000000  0.202940  Uiso  0.001267
    Ce1  Ce4+  1.0000  0.268450  0.033880  0.202940  Uiso  0.001267
    Ce1  Ce4+  1.0000  0.536900  0.067770  0.202940  Uiso  0.001267
    Ce1  Ce4+  1.0000  0.805350  0.101650  0.202940  Uiso  0.001267
    Ce1  Ce4+  1.0000  0.234570  0.302330  0.202940  Uiso  0.001267
    Ce1  Ce4+  1.0000  0.503020  0.336220  0.202940  Uiso  0.001267
    Ce1  Ce4+  1.0000  0.771470  0.370100  0.202940  Uiso  0.001267
    Ce1  Ce4+  1.0000  0.200680  0.570780  0.202940  Uiso  0.001267
    Ce1  Ce4+  1.0000  0.469130  0.604670  0.202940  Uiso  0.001267
    Ce1  Ce4+  1.0000  0.737580  0.638550  0.202940  Uiso  0.001267
    Ce1  Ce4+  1.0000  0.166800  0.839230  0.202940  Uiso  0.001267
    Ce1  Ce4+  1.0000  0.435250  0.873120  0.202940  Uiso  0.001267
    Ce1  Ce4+  1.0000  0.703700  0.907000  0.202940  Uiso  0.001267
    Ce1  Ce4+  1.0000  0.972150  0.940880  0.202940  Uiso  0.001267
    Ce1  Ce4+  1.0000  0.000000  0.000000  0.236760  Uiso  0.001267
    Ce1  Ce4+  1.0000  0.268450  0.033880  0.236760  Uiso  0.001267
    Ce1  Ce4+  1.0000  0.536900  0.067770  0.236760  Uiso  0.001267
    Ce1  Ce4+  1.0000  0.805350  0.101650  0.236760  Uiso  0.001267
    Ce1  Ce4+  1.0000  0.234570  0.302330  0.236760  Uiso  0.001267
    Ce1  Ce4+  1.0000  0.503020  0.336220  0.236760  Uiso  0.001267
    Ce1  Ce4+  1.0000  0.771470  0.370100  0.236760  Uiso  0.001267
    Ce1  Ce4+  1.0000  0.200680  0.570780  0.236760  Uiso  0.001267
    Ce1  Ce4+  1.0000  0.469130  0.604670  0.236760  Uiso  0.001267
    Ce1  Ce4+  1.0000  0.737580  0.638550  0.236760  Uiso  0.001267
    Ce1  Ce4+  1.0000  0.166800  0.839230  0.236760  Uiso  0.001267
    Ce1  Ce4+  1.0000  0.435250  0.873120  0.236760  Uiso  0.001267
    Ce1  Ce4+  1.0000  0.703700  0.907000  0.236760  Uiso  0.001267
    Ce1  Ce4+  1.0000  0.972150  0.940880  0.236760  Uiso  0.001267
    Ce1  Ce4+  1.0000  0.000000  0.000000  0.270580  Uiso  0.001267
    Ce1  Ce4+  1.0000  0.268450  0.033880  0.270580  Uiso  0.001267
    Ce1  Ce4+  1.0000  0.536900  0.067770  0.270580  Uiso  0.001267
    Ce1  Ce4+  1.0000  0.805350  0.101650  0.270580  Uiso  0.001267
    Ce1  Ce4+  1.0000  0.234570  0.302330  0.270580  Uiso  0.001267
    Ce1  Ce4+  1.0000  0.503020  0.336220  0.270580  Uiso  0.001267
    Ce1  Ce4+  1.0000  0.771470  0.370100  0.270580  Uiso  0.001267
    Ce1  Ce4+  1.0000  0.200680  0.570780  0.270580  Uiso  0.001267
    Ce1  Ce4+  1.0000  0.469130  0.604670  0.270580  Uiso  0.001267
    Ce1  Ce4+  1.0000  0.737580  0.638550  0.270580  Uiso  0.001267
    Ce1  Ce4+  1.0000  0.166800  0.839230  0.270580  Uiso  0.001267
    Ce1  Ce4+  1.0000  0.435250  0.873120  0.270580  Uiso  0.001267
    Ce1  Ce4+  1.0000  0.703700  0.907000  0.270580  Uiso  0.001267
    Ce1  Ce4+  1.0000  0.972150  0.940880  0.270580  Uiso  0.001267
    Ce1  Ce4+  1.0000  0.000000  0.000000  0.304400  Uiso  0.001267
    Ce1  Ce4+  1.0000  0.268450  0.033880  0.304400  Uiso  0.001267
    Ce1  Ce4+  1.0000  0.536900  0.067770  0.304400  Uiso  0.001267
    Ce1  Ce4+  1.0000  0.805350  0.101650  0.304400  Uiso  0.001267
    Ce1  Ce4+  1.0000  0.234570  0.302330  0.304400  Uiso  0.001267
    Ce1  Ce4+  1.0000  0.503020  0.336220  0.304400  Uiso  0.001267
    Ce1  Ce4+  1.0000  0.771470  0.370100  0.304400  Uiso  0.001267
    Ce1  Ce4+  1.0000  0.200680  0.570780  0.304400  Uiso  0.001267
    Ce1  Ce4+  1.0000  0.469130  0.604670  0.304400  Uiso  0.001267
    Ce1  Ce4+  1.0000  0.737580  0.638550  0.304400  Uiso  0.001267
    Ce1  Ce4+  1.0000  0.166800  0.839230  0.304400  Uiso  0.001267
    Ce1  Ce4+  1.0000  0.435250  0.873120  0.304400  Uiso  0.001267
    Ce1  Ce4+  1.0000  0.703700  0.907000  0.304400  Uiso  0.001267
    Ce1  Ce4+  1.0000  0.972150  0.940880  0.304400  Uiso  0.001267
    Ce1  Ce4+  1.0000  0.000000  0.000000  0.338230  Uiso  0.001267
    Ce1  Ce4+  1.0000  0.268450  0.033880  0.338230  Uiso  0.001267
    Ce1  Ce4+  1.0000  0.536900  0.067770  0.338230  Uiso  0.001267
    Ce1  Ce4+  1.0000  0.805350  0.101650  0.338230  Uiso  0.001267
    Ce1  Ce4+  1.0000  0.234570  0.302330  0.338230  Uiso  0.001267
    Ce1  Ce4+  1.0000  0.503020  0.336220  0.338230  Uiso  0.001267
    Ce1  Ce4+  1.0000  0.771470  0.370100  0.338230  Uiso  0.001267
    Ce1  Ce4+  1.0000  0.200680  0.570780  0.338230  Uiso  0.001267
    Ce1  Ce4+  1.0000  0.469130  0.604670  0.338230  Uiso  0.001267
    Ce1  Ce4+  1.0000  0.737580  0.638550  0.338230  Uiso  0.001267
    Ce1  Ce4+  1.0000  0.166800  0.839230  0.338230  Uiso  0.001267
    Ce1  Ce4+  1.0000  0.435250  0.873120  0.338230  Uiso  0.001267
    Ce1  Ce4+  1.0000  0.703700  0.907000  0.338230  Uiso  0.001267
    Ce1  Ce4+  1.0000  0.972150  0.940880  0.338230  Uiso  0.001267
    Ce1  Ce4+  1.0000  0.000000  0.000000  0.372050  Uiso  0.001267
    Ce1  Ce4+  1.0000  0.268450  0.033880  0.372050  Uiso  0.001267
    Ce1  Ce4+  1.0000  0.536900  0.067770  0.372050  Uiso  0.001267
    Ce1  Ce4+  1.0000  0.805350  0.101650  0.372050  Uiso  0.001267
    Ce1  Ce4+  1.0000  0.234570  0.302330  0.372050  Uiso  0.001267
    Ce1  Ce4+  1.0000  0.503020  0.336220  0.372050  Uiso  0.001267
    Ce1  Ce4+  1.0000  0.771470  0.370100  0.372050  Uiso  0.001267
    Ce1  Ce4+  1.0000  0.200680  0.570780  0.372050  Uiso  0.001267
    Ce1  Ce4+  1.0000  0.469130  0.604670  0.372050  Uiso  0.001267
    Ce1  Ce4+  1.0000  0.737580  0.638550  0.372050  Uiso  0.001267
    Ce1  Ce4+  1.0000  0.166800  0.839230  0.372050  Uiso  0.001267
    Ce1  Ce4+  1.0000  0.435250  0.873120  0.372050  Uiso  0.001267
    Ce1  Ce4+  1.0000  0.703700  0.907000  0.372050  Uiso  0.001267
    Ce1  Ce4+  1.0000  0.972150  0.940880  0.372050  Uiso  0.001267
    Ce1  Ce4+  1.0000  0.000000  0.000000  0.405870  Uiso  0.001267
    Ce1  Ce4+  1.0000  0.268450  0.033880  0.405870  Uiso  0.001267
    Ce1  Ce4+  1.0000  0.536900  0.067770  0.405870  Uiso  0.001267
    Ce1  Ce4+  1.0000  0.805350  0.101650  0.405870  Uiso  0.001267
    Ce1  Ce4+  1.0000  0.234570  0.302330  0.405870  Uiso  0.001267
    Ce1  Ce4+  1.0000  0.503020  0.336220  0.405870  Uiso  0.001267
    Ce1  Ce4+  1.0000  0.771470  0.370100  0.405870  Uiso  0.001267
    Ce1  Ce4+  1.0000  0.200680  0.570780  0.405870  Uiso  0.001267
    Ce1  Ce4+  1.0000  0.469130  0.604670  0.405870  Uiso  0.001267
    Ce1  Ce4+  1.0000  0.737580  0.638550  0.405870  Uiso  0.001267
    Ce1  Ce4+  1.0000  0.166800  0.839230  0.405870  Uiso  0.001267
    Ce1  Ce4+  1.0000  0.435250  0.873120  0.405870  Uiso  0.001267
    Ce1  Ce4+  1.0000  0.703700  0.907000  0.405870  Uiso  0.001267
    Ce1  Ce4+  1.0000  0.972150  0.940880  0.405870  Uiso  0.001267
    Ce1  Ce4+  1.0000  0.000000  0.000000  0.439690  Uiso  0.001267
    Ce1  Ce4+  1.0000  0.268450  0.033880  0.439690  Uiso  0.001267
    Ce1  Ce4+  1.0000  0.536900  0.067770  0.439690  Uiso  0.001267
    Ce1  Ce4+  1.0000  0.805350  0.101650  0.439690  Uiso  0.001267
    Ce1  Ce4+  1.0000  0.234570  0.302330  0.439690  Uiso  0.001267
    Ce1  Ce4+  1.0000  0.503020  0.336220  0.439690  Uiso  0.001267
    Ce1  Ce4+  1.0000  0.771470  0.370100  0.439690  Uiso  0.001267
    Ce1  Ce4+  1.0000  0.200680  0.570780  0.439690  Uiso  0.001267
    Ce1  Ce4+  1.0000  0.469130  0.604670  0.439690  Uiso  0.001267
    Ce1  Ce4+  1.0000  0.737580  0.638550  0.439690  Uiso  0.001267
    Ce1  Ce4+  1.0000  0.166800  0.839230  0.439690  Uiso  0.001267
    Ce1  Ce4+  1.0000  0.435250  0.873120  0.439690  Uiso  0.001267
    Ce1  Ce4+  1.0000  0.703700  0.907000  0.439690  Uiso  0.001267
    Ce1  Ce4+  1.0000  0.972150  0.940880  0.439690  Uiso  0.001267
    Ce1  Ce4+  1.0000  0.000000  0.000000  0.473520  Uiso  0.001267
    Ce1  Ce4+  1.0000  0.268450  0.033880  0.473520  Uiso  0.001267
    Ce1  Ce4+  1.0000  0.536900  0.067770  0.473520  Uiso  0.001267
    Ce1  Ce4+  1.0000  0.805350  0.101650  0.473520  Uiso  0.001267
    Ce1  Ce4+  1.0000  0.234570  0.302330  0.473520  Uiso  0.001267
    Ce1  Ce4+  1.0000  0.503020  0.336220  0.473520  Uiso  0.001267
    Ce1  Ce4+  1.0000  0.771470  0.370100  0.473520  Uiso  0.001267
    Ce1  Ce4+  1.0000  0.200680  0.570780  0.473520  Uiso  0.001267
    Ce1  Ce4+  1.0000  0.469130  0.604670  0.473520  Uiso  0.001267
    Ce1  Ce4+  1.0000  0.737580  0.638550  0.473520  Uiso  0.001267
    Ce1  Ce4+  1.0000  0.166800  0.839230  0.473520  Uiso  0.001267
    Ce1  Ce4+  1.0000  0.435250  0.873120  0.473520  Uiso  0.001267
    Ce1  Ce4+  1.0000  0.703700  0.907000  0.473520  Uiso  0.001267
    Ce1  Ce4+  1.0000  0.972150  0.940880  0.473520  Uiso  0.001267
    Ce1  Ce4+  1.0000  0.000000  0.000000  0.507340  Uiso  0.001267
    Ce1  Ce4+  1.0000  0.268450  0.033880  0.507340  Uiso  0.001267
    Ce1  Ce4+  1.0000  0.536900  0.067770  0.507340  Uiso  0.001267
    Ce1  Ce4+  1.0000  0.805350  0.101650  0.507340  Uiso  0.001267
    Ce1  Ce4+  1.0000  0.234570  0.302330  0.507340  Uiso  0.001267
    Ce1  Ce4+  1.0000  0.503020  0.336220  0.507340  Uiso  0.001267
    Ce1  Ce4+  1.0000  0.771470  0.370100  0.507340  Uiso  0.001267
    Ce1  Ce4+  1.0000  0.200680  0.570780  0.507340  Uiso  0.001267
    Ce1  Ce4+  1.0000  0.469130  0.604670  0.507340  Uiso  0.001267
    Ce1  Ce4+  1.0000  0.737580  0.638550  0.507340  Uiso  0.001267
    Ce1  Ce4+  1.0000  0.166800  0.839230  0.507340  Uiso  0.001267
    Ce1  Ce4+  1.0000  0.435250  0.873120  0.507340  Uiso  0.001267
    Ce1  Ce4+  1.0000  0.703700  0.907000  0.507340  Uiso  0.001267
    Ce1  Ce4+  1.0000  0.972150  0.940880  0.507340  Uiso  0.001267
    Ce1  Ce4+  1.0000  0.000000  0.000000  0.541160  Uiso  0.001267
    Ce1  Ce4+  1.0000  0.268450  0.033880  0.541160  Uiso  0.001267
    Ce1  Ce4+  1.0000  0.536900  0.067770  0.541160  Uiso  0.001267
    Ce1  Ce4+  1.0000  0.805350  0.101650  0.541160  Uiso  0.001267
    Ce1  Ce4+  1.0000  0.234570  0.302330  0.541160  Uiso  0.001267
    Ce1  Ce4+  1.0000  0.503020  0.336220  0.541160  Uiso  0.001267
    Ce1  Ce4+  1.0000  0.771470  0.370100  0.541160  Uiso  0.001267
    Ce1  Ce4+  1.0000  0.200680  0.570780  0.541160  Uiso  0.001267
    Ce1  Ce4+  1.0000  0.469130  0.604670  0.541160  Uiso  0.001267
    Ce1  Ce4+  1.0000  0.737580  0.638550  0.541160  Uiso  0.001267
    Ce1  Ce4+  1.0000  0.166800  0.839230  0.541160  Uiso  0.001267
    Ce1  Ce4+  1.0000  0.435250  0.873120  0.541160  Uiso  0.001267
    Ce1  Ce4+  1.0000  0.703700  0.907000  0.541160  Uiso  0.001267
    Ce1  Ce4+  1.0000  0.972150  0.940880  0.541160  Uiso  0.001267
    Ce1  Ce4+  1.0000  0.000000  0.000000  0.574980  Uiso  0.001267
    Ce1  Ce4+  1.0000  0.268450  0.033880  0.574980  Uiso  0.001267
    Ce1  Ce4+  1.0000  0.536900  0.067770  0.574980  Uiso  0.001267
    Ce1  Ce4+  1.0000  0.805350  0.101650  0.574980  Uiso  0.001267
    Ce1  Ce4+  1.0000  0.234570  0.302330  0.574980  Uiso  0.001267
    Ce1  Ce4+  1.0000  0.503020  0.336220  0.574980  Uiso  0.001267
    Ce1  Ce4+  1.0000  0.771470  0.370100  0.574980  Uiso  0.001267
    Ce1  Ce4+  1.0000  0.200680  0.570780  0.574980  Uiso  0.001267
    Ce1  Ce4+  1.0000  0.469130  0.604670  0.574980  Uiso  0.001267
    Ce1  Ce4+  1.0000  0.737580  0.638550  0.574980  Uiso  0.001267
    Ce1  Ce4+  1.0000  0.166800  0.839230  0.574980  Uiso  0.001267
    Ce1  Ce4+  1.0000  0.435250  0.873120  0.574980  Uiso  0.001267
    Ce1  Ce4+  1.0000  0.703700  0.907000  0.574980  Uiso  0.001267
    Ce1  Ce4+  1.0000  0.972150  0.940880  0.574980  Uiso  0.001267
    Ce1  Ce4+  1.0000  0.000000  0.000000  0.608810  Uiso  0.001267
    Ce1  Ce4+  1.0000  0.268450  0.033880  0.608810  Uiso  0.001267
    Ce1  Ce4+  1.0000  0.536900  0.067770  0.608810  Uiso  0.001267
    Ce1  Ce4+  1.0000  0.805350  0.101650  0.608810  Uiso  0.001267
    Ce1  Ce4+  1.0000  0.234570  0.302330  0.608810  Uiso  0.001267
    Ce1  Ce4+  1.0000  0.503020  0.336220  0.608810  Uiso  0.001267
    Ce1  Ce4+  1.0000  0.771470  0.370100  0.608810  Uiso  0.001267
    Ce1  Ce4+  1.0000  0.200680  0.570780  0.608810  Uiso  0.001267
    Ce1  Ce4+  1.0000  0.469130  0.604670  0.608810  Uiso  0.001267
    Ce1  Ce4+  1.0000  0.737580  0.638550  0.608810  Uiso  0.001267
    Ce1  Ce4+  1.0000  0.166800  0.839230  0.608810  Uiso  0.001267
    Ce1  Ce4+  1.0000  0.435250  0.873120  0.608810  Uiso  0.001267
    Ce1  Ce4+  1.0000  0.703700  0.907000  0.608810  Uiso  0.001267
    Ce1  Ce4+  1.0000  0.972150  0.940880  0.608810  Uiso  0.001267
    Ce1  Ce4+  1.0000  0.000000  0.000000  0.642630  Uiso  0.001267
    Ce1  Ce4+  1.0000  0.268450  0.033880  0.642630  Uiso  0.001267
    Ce1  Ce4+  1.0000  0.536900  0.067770  0.642630  Uiso  0.001267
    Ce1  Ce4+  1.0000  0.805350  0.101650  0.642630  Uiso  0.001267
    Ce1  Ce4+  1.0000  0.234570  0.302330  0.642630  Uiso  0.001267
    Ce1  Ce4+  1.0000  0.503020  0.336220  0.642630  Uiso  0.001267
    Ce1  Ce4+  1.0000  0.771470  0.370100  0.642630  Uiso  0.001267
    Ce1  Ce4+  1.0000  0.200680  0.570780  0.642630  Uiso  0.001267
    Ce1  Ce4+  1.0000  0.469130  0.604670  0.642630  Uiso  0.001267
    Ce1  Ce4+  1.0000  0.737580  0.638550  0.642630  Uiso  0.001267
    Ce1  Ce4+  1.0000  0.166800  0.839230  0.642630  Uiso  0.001267
    Ce1  Ce4+  1.0000  0.435250  0.873120  0.642630  Uiso  0.001267
    Ce1  Ce4+  1.0000  0.703700  0.907000  0.642630  Uiso  0.001267
    Ce1  Ce4+  1.0000  0.972150  0.940880  0.642630  Uiso  0.001267
    Ce1  Ce4+  1.0000  0.000000  0.000000  0.676450  Uiso  0.001267
    Ce1  Ce4+  1.0000  0.268450  0.033880  0.676450  Uiso  0.001267
    Ce1  Ce4+  1.0000  0.536900  0.067770  0.676450  Uiso  0.001267
    Ce1  Ce4+  1.0000  0.805350  0.101650  0.676450  Uiso  0.001267
    Ce1  Ce4+  1.0000  0.234570  0.302330  0.676450  Uiso  0.001267
    Ce1  Ce4+  1.0000  0.503020  0.336220  0.676450  Uiso  0.001267
    Ce1  Ce4+  1.0000  0.771470  0.370100  0.676450  Uiso  0.001267
    Ce1  Ce4+  1.0000  0.200680  0.570780  0.676450  Uiso  0.001267
    Ce1  Ce4+  1.0000  0.469130  0.604670  0.676450  Uiso  0.001267
    Ce1  Ce4+  1.0000  0.737580  0.638550  0.676450  Uiso  0.001267
    Ce1  Ce4+  1.0000  0.166800  0.839230  0.676450  Uiso  0.001267
    Ce1  Ce4+  1.0000  0.435250  0.873120  0.676450  Uiso  0.001267
    Ce1  Ce4+  1.0000  0.703700  0.907000  0.676450  Uiso  0.001267
    Ce1  Ce4+  1.0000  0.972150  0.940880  0.676450  Uiso  0.001267
    Ce1  Ce4+  1.0000  0.000000  0.000000  0.710270  Uiso  0.001267
    Ce1  Ce4+  1.0000  0.268450  0.033880  0.710270  Uiso  0.001267
    Ce1  Ce4+  1.0000  0.536900  0.067770  0.710270  Uiso  0.001267
    Ce1  Ce4+  1.0000  0.805350  0.101650  0.710270  Uiso  0.001267
    Ce1  Ce4+  1.0000  0.234570  0.302330  0.710270  Uiso  0.001267
    Ce1  Ce4+  1.0000  0.503020  0.336220  0.710270  Uiso  0.001267
    Ce1  Ce4+  1.0000  0.771470  0.370100  0.710270  Uiso  0.001267
    Ce1  Ce4+  1.0000  0.200680  0.570780  0.710270  Uiso  0.001267
    Ce1  Ce4+  1.0000  0.469130  0.604670  0.710270  Uiso  0.001267
    Ce1  Ce4+  1.0000  0.737580  0.638550  0.710270  Uiso  0.001267
    Ce1  Ce4+  1.0000  0.166800  0.839230  0.710270  Uiso  0.001267
    Ce1  Ce4+  1.0000  0.435250  0.873120  0.710270  Uiso  0.001267
    Ce1  Ce4+  1.0000  0.703700  0.907000  0.710270  Uiso  0.001267
    Ce1  Ce4+  1.0000  0.972150  0.940880  0.710270  Uiso  0.001267
    Ce1  Ce4+  1.0000  0.000000  0.000000  0.744100  Uiso  0.001267
    Ce1  Ce4+  1.0000  0.268450  0.033880  0.744100  Uiso  0.001267
    Ce1  Ce4+  1.0000  0.536900  0.067770  0.744100  Uiso  0.001267
    Ce1  Ce4+  1.0000  0.805350  0.101650  0.744100  Uiso  0.001267
    Ce1  Ce4+  1.0000  0.234570  0.302330  0.744100  Uiso  0.001267
    Ce1  Ce4+  1.0000  0.503020  0.336220  0.744100  Uiso  0.001267
    Ce1  Ce4+  1.0000  0.771470  0.370100  0.744100  Uiso  0.001267
    Ce1  Ce4+  1.0000  0.200680  0.570780  0.744100  Uiso  0.001267
    Ce1  Ce4+  1.0000  0.469130  0.604670  0.744100  Uiso  0.001267
    Ce1  Ce4+  1.0000  0.737580  0.638550  0.744100  Uiso  0.001267
    Ce1  Ce4+  1.0000  0.166800  0.839230  0.744100  Uiso  0.001267
    Ce1  Ce4+  1.0000  0.435250  0.873120  0.744100  Uiso  0.001267
    Ce1  Ce4+  1.0000  0.703700  0.907000  0.744100  Uiso  0.001267
    Ce1  Ce4+  1.0000  0.972150  0.940880  0.744100  Uiso  0.001267
    Ce1  Ce4+  1.0000  0.000000  0.000000  0.777920  Uiso  0.001267
    Ce1  Ce4+  1.0000  0.268450  0.033880  0.777920  Uiso  0.001267
    Ce1  Ce4+  1.0000  0.536900  0.067770  0.777920  Uiso  0.001267
    Ce1  Ce4+  1.0000  0.805350  0.101650  0.777920  Uiso  0.001267
    Ce1  Ce4+  1.0000  0.234570  0.302330  0.777920  Uiso  0.001267
    Ce1  Ce4+  1.0000  0.503020  0.336220  0.777920  Uiso  0.001267
    Ce1  Ce4+  1.0000  0.771470  0.370100  0.777920  Uiso  0.001267
    Ce1  Ce4+  1.0000  0.200680  0.570780  0.777920  Uiso  0.001267
    Ce1  Ce4+  1.0000  0.469130  0.604670  0.777920  Uiso  0.001267
    Ce1  Ce4+  1.0000  0.737580  0.638550  0.777920  Uiso  0.001267
    Ce1  Ce4+  1.0000  0.166800  0.839230  0.777920  Uiso  0.001267
    Ce1  Ce4+  1.0000  0.435250  0.873120  0.777920  Uiso  0.001267
    Ce1  Ce4+  1.0000  0.703700  0.907000  0.777920  Uiso  0.001267
    Ce1  Ce4+  1.0000  0.972150  0.940880  0.777920  Uiso  0.001267
    Ce1  Ce4+  1.0000  0.000000  0.000000  0.811740  Uiso  0.001267
    Ce1  Ce4+  1.0000  0.268450  0.033880  0.811740  Uiso  0.001267
    Ce1  Ce4+  1.0000  0.536900  0.067770  0.811740  Uiso  0.001267
    Ce1  Ce4+  1.0000  0.805350  0.101650  0.811740  Uiso  0.001267
    Ce1  Ce4+  1.0000  0.234570  0.302330  0.811740  Uiso  0.001267
    Ce1  Ce4+  1.0000  0.503020  0.336220  0.811740  Uiso  0.001267
    Ce1  Ce4+  1.0000  0.771470  0.370100  0.811740  Uiso  0.001267
    Ce1  Ce4+  1.0000  0.200680  0.570780  0.811740  Uiso  0.001267
    Ce1  Ce4+  1.0000  0.469130  0.604670  0.811740  Uiso  0.001267
    Ce1  Ce4+  1.0000  0.737580  0.638550  0.811740  Uiso  0.001267
    Ce1  Ce4+  1.0000  0.166800  0.839230  0.811740  Uiso  0.001267
    Ce1  Ce4+  1.0000  0.435250  0.873120  0.811740  Uiso  0.001267
    Ce1  Ce4+  1.0000  0.703700  0.907000  0.811740  Uiso  0.001267
    Ce1  Ce4+  1.0000  0.972150  0.940880  0.811740  Uiso  0.001267
    Ce1  Ce4+  1.0000  0.000000  0.000000  0.845560  Uiso  0.001267
    Ce1  Ce4+  1.0000  0.268450  0.033880  0.845560  Uiso  0.001267
    Ce1  Ce4+  1.0000  0.536900  0.067770  0.845560  Uiso  0.001267
    Ce1  Ce4+  1.0000  0.805350  0.101650  0.845560  Uiso  0.001267
    Ce1  Ce4+  1.0000  0.234570  0.302330  0.845560  Uiso  0.001267
    Ce1  Ce4+  1.0000  0.503020  0.336220  0.845560  Uiso  0.001267
    Ce1  Ce4+  1.0000  0.771470  0.370100  0.845560  Uiso  0.001267
    Ce1  Ce4+  1.0000  0.200680  0.570780  0.845560  Uiso  0.001267
    Ce1  Ce4+  1.0000  0.469130  0.604670  0.845560  Uiso  0.001267
    Ce1  Ce4+  1.0000  0.737580  0.638550  0.845560  Uiso  0.001267
    Ce1  Ce4+  1.0000  0.166800  0.839230  0.845560  Uiso  0.001267
    Ce1  Ce4+  1.0000  0.435250  0.873120  0.845560  Uiso  0.001267
    Ce1  Ce4+  1.0000  0.703700  0.907000  0.845560  Uiso  0.001267
    Ce1  Ce4+  1.0000  0.972150  0.940880  0.845560  Uiso  0.001267
    Ce1  Ce4+  1.0000  0.000000  0.000000  0.879390  Uiso  0.001267
    Ce1  Ce4+  1.0000  0.268450  0.033880  0.879390  Uiso  0.001267
    Ce1  Ce4+  1.0000  0.536900  0.067770  0.879390  Uiso  0.001267
    Ce1  Ce4+  1.0000  0.805350  0.101650  0.879390  Uiso  0.001267
    Ce1  Ce4+  1.0000  0.234570  0.302330  0.879390  Uiso  0.001267
    Ce1  Ce4+  1.0000  0.503020  0.336220  0.879390  Uiso  0.001267
    Ce1  Ce4+  1.0000  0.771470  0.370100  0.879390  Uiso  0.001267
    Ce1  Ce4+  1.0000  0.200680  0.570780  0.879390  Uiso  0.001267
    Ce1  Ce4+  1.0000  0.469130  0.604670  0.879390  Uiso  0.001267
    Ce1  Ce4+  1.0000  0.737580  0.638550  0.879390  Uiso  0.001267
    Ce1  Ce4+  1.0000  0.166800  0.839230  0.879390  Uiso  0.001267
    Ce1  Ce4+  1.0000  0.435250  0.873120  0.879390  Uiso  0.001267
    Ce1  Ce4+  1.0000  0.703700  0.907000  0.879390  Uiso  0.001267
    Ce1  Ce4+  1.0000  0.972150  0.940880  0.879390  Uiso  0.001267
    Ce1  Ce4+  1.0000  0.000000  0.000000  0.913210  Uiso  0.001267
    Ce1  Ce4+  1.0000  0.268450  0.033880  0.913210  Uiso  0.001267
    Ce1  Ce4+  1.0000  0.536900  0.067770  0.913210  Uiso  0.001267
    Ce1  Ce4+  1.0000  0.805350  0.101650  0.913210  Uiso  0.001267
    Ce1  Ce4+  1.0000  0.234570  0.302330  0.913210  Uiso  0.001267
    Ce1  Ce4+  1.0000  0.503020  0.336220  0.913210  Uiso  0.001267
    Ce1  Ce4+  1.0000  0.771470  0.370100  0.913210  Uiso  0.001267
    Ce1  Ce4+  1.0000  0.200680  0.570780  0.913210  Uiso  0.001267
    Ce1  Ce4+  1.0000  0.469130  0.604670  0.913210  Uiso  0.001267
    Ce1  Ce4+  1.0000  0.737580  0.638550  0.913210  Uiso  0.001267
    Ce1  Ce4+  1.0000  0.166800  0.839230  0.913210  Uiso  0.001267
    Ce1  Ce4+  1.0000  0.435250  0.873120  0.913210  Uiso  0.001267
    Ce1  Ce4+  1.0000  0.703700  0.907000  0.913210  Uiso  0.001267
    Ce1  Ce4+  1.0000  0.972150  0.940880  0.913210  Uiso  0.001267
    Ce1  Ce4+  1.0000  0.000000  0.000000  0.947030  Uiso  0.001267
    Ce1  Ce4+  1.0000  0.268450  0.033880  0.947030  Uiso  0.001267
    Ce1  Ce4+  1.0000  0.536900  0.067770  0.947030  Uiso  0.001267
    Ce1  Ce4+  1.0000  0.805350  0.101650  0.947030  Uiso  0.001267
    Ce1  Ce4+  1.0000  0.234570  0.302330  0.947030  Uiso  0.001267
    Ce1  Ce4+  1.0000  0.503020  0.336220  0.947030  Uiso  0.001267
    Ce1  Ce4+  1.0000  0.771470  0.370100  0.947030  Uiso  0.001267
    Ce1  Ce4+  1.0000  0.200680  0.570780  0.947030  Uiso  0.001267
    Ce1  Ce4+  1.0000  0.469130  0.604670  0.947030  Uiso  0.001267
    Ce1  Ce4+  1.0000  0.737580  0.638550  0.947030  Uiso  0.001267
    Ce1  Ce4+  1.0000  0.166800  0.839230  0.947030  Uiso  0.001267
    Ce1  Ce4+  1.0000  0.435250  0.873120  0.947030  Uiso  0.001267
    Ce1  Ce4+  1.0000  0.703700  0.907000  0.947030  Uiso  0.001267
    Ce1  Ce4+  1.0000  0.972150  0.940880  0.947030  Uiso  0.001267
    Ce1  Ce4+  1.0000  0.000000  0.000000  0.980850  Uiso  0.001267
    Ce1  Ce4+  1.0000  0.268450  0.033880  0.980850  Uiso  0.001267
    Ce1  Ce4+  1.0000  0.536900  0.067770  0.980850  Uiso  0.001267
    Ce1  Ce4+  1.0000  0.805350  0.101650  0.980850  Uiso  0.001267
    Ce1  Ce4+  1.0000  0.234570  0.302330  0.980850  Uiso  0.001267
    Ce1  Ce4+  1.0000  0.503020  0.336220  0.980850  Uiso  0.001267
    Ce1  Ce4+  1.0000  0.771470  0.370100  0.980850  Uiso  0.001267
    Ce1  Ce4+  1.0000  0.200680  0.570780  0.980850  Uiso  0.001267
    Ce1  Ce4+  1.0000  0.469130  0.604670  0.980850  Uiso  0.001267
    Ce1  Ce4+  1.0000  0.737580  0.638550  0.980850  Uiso  0.001267
    Ce1  Ce4+  1.0000  0.166800  0.839230  0.980850  Uiso  0.001267
    Ce1  Ce4+  1.0000  0.435250  0.873120  0.980850  Uiso  0.001267
    Ce1  Ce4+  1.0000  0.703700  0.907000  0.980850  Uiso  0.001267
    Ce1  Ce4+  1.0000  0.972150  0.940880  0.980850  Uiso  0.001267
    O1  O2-  1.0000  0.058640  0.075580  0.008460  Uiso  0.025330
    O1  O2-  1.0000  0.327090  0.109470  0.008460  Uiso  0.025330
    O1  O2-  1.0000  0.595540  0.143350  0.008460  Uiso  0.025330
    O1  O2-  1.0000  0.863990  0.177230  0.008460  Uiso  0.025330
    O1  O2-  1.0000  0.024760  0.344030  0.008460  Uiso  0.025330
    O1  O2-  1.0000  0.293210  0.377920  0.008460  Uiso  0.025330
    O1  O2-  1.0000  0.561660  0.411800  0.008460  Uiso  0.025330
    O1  O2-  1.0000  0.830110  0.445680  0.008460  Uiso  0.025330
    O1  O2-  1.0000  0.259330  0.646370  0.008460  Uiso  0.025330
    O1  O2-  1.0000  0.527780  0.680250  0.008460  Uiso  0.025330
    O1  O2-  1.0000  0.796230  0.714130  0.008460  Uiso  0.025330
    O1  O2-  1.0000  0.225440  0.914820  0.008460  Uiso  0.025330
    O1  O2-  1.0000  0.493890  0.948700  0.008460  Uiso  0.025330
    O1  O2-  1.0000  0.762340  0.982580  0.008460  Uiso  0.025330
    O1  O2-  1.0000  0.058640  0.075580  0.042280  Uiso  0.025330
    O1  O2-  1.0000  0.327090  0.109470  0.042280  Uiso  0.025330
    O1  O2-  1.0000  0.595540  0.143350  0.042280  Uiso  0.025330
    O1  O2-  1.0000  0.863990  0.177230  0.042280  Uiso  0.025330
    O1  O2-  1.0000  0.024760  0.344030  0.042280  Uiso  0.025330
    O1  O2-  1.0000  0.293210  0.377920  0.042280  Uiso  0.025330
    O1  O2-  1.0000  0.561660  0.411800  0.042280  Uiso  0.025330
    O1  O2-  1.0000  0.830110  0.445680  0.042280  Uiso  0.025330
    O1  O2-  1.0000  0.259330  0.646370  0.042280  Uiso  0.025330
    O1  O2-  1.0000  0.527780  0.680250  0.042280  Uiso  0.025330
    O1  O2-  1.0000  0.796230  0.714130  0.042280  Uiso  0.025330
    O1  O2-  1.0000  0.225440  0.914820  0.042280  Uiso  0.025330
    O1  O2-  1.0000  0.493890  0.948700  0.042280  Uiso  0.025330
    O1  O2-  1.0000  0.762340  0.982580  0.042280  Uiso  0.025330
    O1  O2-  1.0000  0.058640  0.075580  0.076100  Uiso  0.025330
    O1  O2-  1.0000  0.327090  0.109470  0.076100  Uiso  0.025330
    O1  O2-  1.0000  0.595540  0.143350  0.076100  Uiso  0.025330
    O1  O2-  1.0000  0.863990  0.177230  0.076100  Uiso  0.025330
    O1  O2-  1.0000  0.024760  0.344030  0.076100  Uiso  0.025330
    O1  O2-  1.0000  0.293210  0.377920  0.076100  Uiso  0.025330
    O1  O2-  1.0000  0.561660  0.411800  0.076100  Uiso  0.025330
    O1  O2-  1.0000  0.830110  0.445680  0.076100  Uiso  0.025330
    O1  O2-  1.0000  0.259330  0.646370  0.076100  Uiso  0.025330
    O1  O2-  1.0000  0.527780  0.680250  0.076100  Uiso  0.025330
    O1  O2-  1.0000  0.796230  0.714130  0.076100  Uiso  0.025330
    O1  O2-  1.0000  0.225440  0.914820  0.076100  Uiso  0.025330
    O1  O2-  1.0000  0.493890  0.948700  0.076100  Uiso  0.025330
    O1  O2-  1.0000  0.762340  0.982580  0.076100  Uiso  0.025330
    O1  O2-  1.0000  0.058640  0.075580  0.109920  Uiso  0.025330
    O1  O2-  1.0000  0.327090  0.109470  0.109920  Uiso  0.025330
    O1  O2-  1.0000  0.595540  0.143350  0.109920  Uiso  0.025330
    O1  O2-  1.0000  0.863990  0.177230  0.109920  Uiso  0.025330
    O1  O2-  1.0000  0.024760  0.344030  0.109920  Uiso  0.025330
    O1  O2-  1.0000  0.293210  0.377920  0.109920  Uiso  0.025330
    O1  O2-  1.0000  0.561660  0.411800  0.109920  Uiso  0.025330
    O1  O2-  1.0000  0.830110  0.445680  0.109920  Uiso  0.025330
    O1  O2-  1.0000  0.259330  0.646370  0.109920  Uiso  0.025330
    O1  O2-  1.0000  0.527780  0.680250  0.109920  Uiso  0.025330
    O1  O2-  1.0000  0.796230  0.714130  0.109920  Uiso  0.025330
    O1  O2-  1.0000  0.225440  0.914820  0.109920  Uiso  0.025330
    O1  O2-  1.0000  0.493890  0.948700  0.109920  Uiso  0.025330
    O1  O2-  1.0000  0.762340  0.982580  0.109920  Uiso  0.025330
    O1  O2-  1.0000  0.058640  0.075580  0.143750  Uiso  0.025330
    O1  O2-  1.0000  0.327090  0.109470  0.143750  Uiso  0.025330
    O1  O2-  1.0000  0.595540  0.143350  0.143750  Uiso  0.025330
    O1  O2-  1.0000  0.863990  0.177230  0.143750  Uiso  0.025330
    O1  O2-  1.0000  0.024760  0.344030  0.143750  Uiso  0.025330
    O1  O2-  1.0000  0.293210  0.377920  0.143750  Uiso  0.025330
    O1  O2-  1.0000  0.561660  0.411800  0.143750  Uiso  0.025330
    O1  O2-  1.0000  0.830110  0.445680  0.143750  Uiso  0.025330
    O1  O2-  1.0000  0.259330  0.646370  0.143750  Uiso  0.025330
    O1  O2-  1.0000  0.527780  0.680250  0.143750  Uiso  0.025330
    O1  O2-  1.0000  0.796230  0.714130  0.143750  Uiso  0.025330
    O1  O2-  1.0000  0.225440  0.914820  0.143750  Uiso  0.025330
    O1  O2-  1.0000  0.493890  0.948700  0.143750  Uiso  0.025330
    O1  O2-  1.0000  0.762340  0.982580  0.143750  Uiso  0.025330
    O1  O2-  1.0000  0.058640  0.075580  0.177570  Uiso  0.025330
    O1  O2-  1.0000  0.327090  0.109470  0.177570  Uiso  0.025330
    O1  O2-  1.0000  0.595540  0.143350  0.177570  Uiso  0.025330
    O1  O2-  1.0000  0.863990  0.177230  0.177570  Uiso  0.025330
    O1  O2-  1.0000  0.024760  0.344030  0.177570  Uiso  0.025330
    O1  O2-  1.0000  0.293210  0.377920  0.177570  Uiso  0.025330
    O1  O2-  1.0000  0.561660  0.411800  0.177570  Uiso  0.025330
    O1  O2-  1.0000  0.830110  0.445680  0.177570  Uiso  0.025330
    O1  O2-  1.0000  0.259330  0.646370  0.177570  Uiso  0.025330
    O1  O2-  1.0000  0.527780  0.680250  0.177570  Uiso  0.025330
    O1  O2-  1.0000  0.796230  0.714130  0.177570  Uiso  0.025330
    O1  O2-  1.0000  0.225440  0.914820  0.177570  Uiso  0.025330
    O1  O2-  1.0000  0.493890  0.948700  0.177570  Uiso  0.025330
    O1  O2-  1.0000  0.762340  0.982580  0.177570  Uiso  0.025330
    O1  O2-  1.0000  0.058640  0.075580  0.211390  Uiso  0.025330
    O1  O2-  1.0000  0.327090  0.109470  0.211390  Uiso  0.025330
    O1  O2-  1.0000  0.595540  0.143350  0.211390  Uiso  0.025330
    O1  O2-  1.0000  0.863990  0.177230  0.211390  Uiso  0.025330
    O1  O2-  1.0000  0.024760  0.344030  0.211390  Uiso  0.025330
    O1  O2-  1.0000  0.293210  0.377920  0.211390  Uiso  0.025330
    O1  O2-  1.0000  0.561660  0.411800  0.211390  Uiso  0.025330
    O1  O2-  1.0000  0.830110  0.445680  0.211390  Uiso  0.025330
    O1  O2-  1.0000  0.259330  0.646370  0.211390  Uiso  0.025330
    O1  O2-  1.0000  0.527780  0.680250  0.211390  Uiso  0.025330
    O1  O2-  1.0000  0.796230  0.714130  0.211390  Uiso  0.025330
    O1  O2-  1.0000  0.225440  0.914820  0.211390  Uiso  0.025330
    O1  O2-  1.0000  0.493890  0.948700  0.211390  Uiso  0.025330
    O1  O2-  1.0000  0.762340  0.982580  0.211390  Uiso  0.025330
    O1  O2-  1.0000  0.058640  0.075580  0.245210  Uiso  0.025330
    O1  O2-  1.0000  0.327090  0.109470  0.245210  Uiso  0.025330
    O1  O2-  1.0000  0.595540  0.143350  0.245210  Uiso  0.025330
    O1  O2-  1.0000  0.863990  0.177230  0.245210  Uiso  0.025330
    O1  O2-  1.0000  0.024760  0.344030  0.245210  Uiso  0.025330
    O1  O2-  1.0000  0.293210  0.377920  0.245210  Uiso  0.025330
    O1  O2-  1.0000  0.561660  0.411800  0.245210  Uiso  0.025330
    O1  O2-  1.0000  0.830110  0.445680  0.245210  Uiso  0.025330
    O1  O2-  1.0000  0.259330  0.646370  0.245210  Uiso  0.025330
    O1  O2-  1.0000  0.527780  0.680250  0.245210  Uiso  0.025330
    O1  O2-  1.0000  0.796230  0.714130  0.245210  Uiso  0.025330
    O1  O2-  1.0000  0.225440  0.914820  0.245210  Uiso  0.025330
    O1  O2-  1.0000  0.493890  0.948700  0.245210  Uiso  0.025330
    O1  O2-  1.0000  0.762340  0.982580  0.245210  Uiso  0.025330
    O1  O2-  1.0000  0.058640  0.075580  0.279040  Uiso  0.025330
    O1  O2-  1.0000  0.327090  0.109470  0.279040  Uiso  0.025330
    O1  O2-  1.0000  0.595540  0.143350  0.279040  Uiso  0.025330
    O1  O2-  1.0000  0.863990  0.177230  0.279040  Uiso  0.025330
    O1  O2-  1.0000  0.024760  0.344030  0.279040  Uiso  0.025330
    O1  O2-  1.0000  0.293210  0.377920  0.279040  Uiso  0.025330
    O1  O2-  1.0000  0.561660  0.411800  0.279040  Uiso  0.025330
    O1  O2-  1.0000  0.830110  0.445680  0.279040  Uiso  0.025330
    O1  O2-  1.0000  0.259330  0.646370  0.279040  Uiso  0.025330
    O1  O2-  1.0000  0.527780  0.680250  0.279040  Uiso  0.025330
    O1  O2-  1.0000  0.796230  0.714130  0.279040  Uiso  0.025330
    O1  O2-  1.0000  0.225440  0.914820  0.279040  Uiso  0.025330
    O1  O2-  1.0000  0.493890  0.948700  0.279040  Uiso  0.025330
    O1  O2-  1.0000  0.762340  0.982580  0.279040  Uiso  0.025330
    O1  O2-  1.0000  0.058640  0.075580  0.312860  Uiso  0.025330
    O1  O2-  1.0000  0.327090  0.109470  0.312860  Uiso  0.025330
    O1  O2-  1.0000  0.595540  0.143350  0.312860  Uiso  0.025330
    O1  O2-  1.0000  0.863990  0.177230  0.312860  Uiso  0.025330
    O1  O2-  1.0000  0.024760  0.344030  0.312860  Uiso  0.025330
    O1  O2-  1.0000  0.293210  0.377920  0.312860  Uiso  0.025330
    O1  O2-  1.0000  0.561660  0.411800  0.312860  Uiso  0.025330
    O1  O2-  1.0000  0.830110  0.445680  0.312860  Uiso  0.025330
    O1  O2-  1.0000  0.259330  0.646370  0.312860  Uiso  0.025330
    O1  O2-  1.0000  0.527780  0.680250  0.312860  Uiso  0.025330
    O1  O2-  1.0000  0.796230  0.714130  0.312860  Uiso  0.025330
    O1  O2-  1.0000  0.225440  0.914820  0.312860  Uiso  0.025330
    O1  O2-  1.0000  0.493890  0.948700  0.312860  Uiso  0.025330
    O1  O2-  1.0000  0.762340  0.982580  0.312860  Uiso  0.025330
    O1  O2-  1.0000  0.058640  0.075580  0.346680  Uiso  0.025330
    O1  O2-  1.0000  0.327090  0.109470  0.346680  Uiso  0.025330
    O1  O2-  1.0000  0.595540  0.143350  0.346680  Uiso  0.025330
    O1  O2-  1.0000  0.863990  0.177230  0.346680  Uiso  0.025330
    O1  O2-  1.0000  0.024760  0.344030  0.346680  Uiso  0.025330
    O1  O2-  1.0000  0.293210  0.377920  0.346680  Uiso  0.025330
    O1  O2-  1.0000  0.561660  0.411800  0.346680  Uiso  0.025330
    O1  O2-  1.0000  0.830110  0.445680  0.346680  Uiso  0.025330
    O1  O2-  1.0000  0.259330  0.646370  0.346680  Uiso  0.025330
    O1  O2-  1.0000  0.527780  0.680250  0.346680  Uiso  0.025330
    O1  O2-  1.0000  0.796230  0.714130  0.346680  Uiso  0.025330
    O1  O2-  1.0000  0.225440  0.914820  0.346680  Uiso  0.025330
    O1  O2-  1.0000  0.493890  0.948700  0.346680  Uiso  0.025330
    O1  O2-  1.0000  0.762340  0.982580  0.346680  Uiso  0.025330
    O1  O2-  1.0000  0.058640  0.075580  0.380500  Uiso  0.025330
    O1  O2-  1.0000  0.327090  0.109470  0.380500  Uiso  0.025330
    O1  O2-  1.0000  0.595540  0.143350  0.380500  Uiso  0.025330
    O1  O2-  1.0000  0.863990  0.177230  0.380500  Uiso  0.025330
    O1  O2-  1.0000  0.024760  0.344030  0.380500  Uiso  0.025330
    O1  O2-  1.0000  0.293210  0.377920  0.380500  Uiso  0.025330
    O1  O2-  1.0000  0.561660  0.411800  0.380500  Uiso  0.025330
    O1  O2-  1.0000  0.830110  0.445680  0.380500  Uiso  0.025330
    O1  O2-  1.0000  0.259330  0.646370  0.380500  Uiso  0.025330
    O1  O2-  1.0000  0.527780  0.680250  0.380500  Uiso  0.025330
    O1  O2-  1.0000  0.796230  0.714130  0.380500  Uiso  0.025330
    O1  O2-  1.0000  0.225440  0.914820  0.380500  Uiso  0.025330
    O1  O2-  1.0000  0.493890  0.948700  0.380500  Uiso  0.025330
    O1  O2-  1.0000  0.762340  0.982580  0.380500  Uiso  0.025330
    O1  O2-  1.0000  0.058640  0.075580  0.414330  Uiso  0.025330
    O1  O2-  1.0000  0.327090  0.109470  0.414330  Uiso  0.025330
    O1  O2-  1.0000  0.595540  0.143350  0.414330  Uiso  0.025330
    O1  O2-  1.0000  0.863990  0.177230  0.414330  Uiso  0.025330
    O1  O2-  1.0000  0.024760  0.344030  0.414330  Uiso  0.025330
    O1  O2-  1.0000  0.293210  0.377920  0.414330  Uiso  0.025330
    O1  O2-  1.0000  0.561660  0.411800  0.414330  Uiso  0.025330
    O1  O2-  1.0000  0.830110  0.445680  0.414330  Uiso  0.025330
    O1  O2-  1.0000  0.259330  0.646370  0.414330  Uiso  0.025330
    O1  O2-  1.0000  0.527780  0.680250  0.414330  Uiso  0.025330
    O1  O2-  1.0000  0.796230  0.714130  0.414330  Uiso  0.025330
    O1  O2-  1.0000  0.225440  0.914820  0.414330  Uiso  0.025330
    O1  O2-  1.0000  0.493890  0.948700  0.414330  Uiso  0.025330
    O1  O2-  1.0000  0.762340  0.982580  0.414330  Uiso  0.025330
    O1  O2-  1.0000  0.058640  0.075580  0.448150  Uiso  0.025330
    O1  O2-  1.0000  0.327090  0.109470  0.448150  Uiso  0.025330
    O1  O2-  1.0000  0.595540  0.143350  0.448150  Uiso  0.025330
    O1  O2-  1.0000  0.863990  0.177230  0.448150  Uiso  0.025330
    O1  O2-  1.0000  0.024760  0.344030  0.448150  Uiso  0.025330
    O1  O2-  1.0000  0.293210  0.377920  0.448150  Uiso  0.025330
    O1  O2-  1.0000  0.561660  0.411800  0.448150  Uiso  0.025330
    O1  O2-  1.0000  0.830110  0.445680  0.448150  Uiso  0.025330
    O1  O2-  1.0000  0.259330  0.646370  0.448150  Uiso  0.025330
    O1  O2-  1.0000  0.527780  0.680250  0.448150  Uiso  0.025330
    O1  O2-  1.0000  0.796230  0.714130  0.448150  Uiso  0.025330
    O1  O2-  1.0000  0.225440  0.914820  0.448150  Uiso  0.025330
    O1  O2-  1.0000  0.493890  0.948700  0.448150  Uiso  0.025330
    O1  O2-  1.0000  0.762340  0.982580  0.448150  Uiso  0.025330
    O1  O2-  1.0000  0.058640  0.075580  0.481970  Uiso  0.025330
    O1  O2-  1.0000  0.327090  0.109470  0.481970  Uiso  0.025330
    O1  O2-  1.0000  0.595540  0.143350  0.481970  Uiso  0.025330
    O1  O2-  1.0000  0.863990  0.177230  0.481970  Uiso  0.025330
    O1  O2-  1.0000  0.024760  0.344030  0.481970  Uiso  0.025330
    O1  O2-  1.0000  0.293210  0.377920  0.481970  Uiso  0.025330
    O1  O2-  1.0000  0.561660  0.411800  0.481970  Uiso  0.025330
    O1  O2-  1.0000  0.830110  0.445680  0.481970  Uiso  0.025330
    O1  O2-  1.0000  0.259330  0.646370  0.481970  Uiso  0.025330
    O1  O2-  1.0000  0.527780  0.680250  0.481970  Uiso  0.025330
    O1  O2-  1.0000  0.796230  0.714130  0.481970  Uiso  0.025330
    O1  O2-  1.0000  0.225440  0.914820  0.481970  Uiso  0.025330
    O1  O2-  1.0000  0.493890  0.948700  0.481970  Uiso  0.025330
    O1  O2-  1.0000  0.762340  0.982580  0.481970  Uiso  0.025330
    O1  O2-  1.0000  0.058640  0.075580  0.515790  Uiso  0.025330
    O1  O2-  1.0000  0.327090  0.109470  0.515790  Uiso  0.025330
    O1  O2-  1.0000  0.595540  0.143350  0.515790  Uiso  0.025330
    O1  O2-  1.0000  0.863990  0.177230  0.515790  Uiso  0.025330
    O1  O2-  1.0000  0.024760  0.344030  0.515790  Uiso  0.025330
    O1  O2-  1.0000  0.293210  0.377920  0.515790  Uiso  0.025330
    O1  O2-  1.0000  0.561660  0.411800  0.515790  Uiso  0.025330
    O1  O2-  1.0000  0.830110  0.445680  0.515790  Uiso  0.025330
    O1  O2-  1.0000  0.259330  0.646370  0.515790  Uiso  0.025330
    O1  O2-  1.0000  0.527780  0.680250  0.515790  Uiso  0.025330
    O1  O2-  1.0000  0.796230  0.714130  0.515790  Uiso  0.025330
    O1  O2-  1.0000  0.225440  0.914820  0.515790  Uiso  0.025330
    O1  O2-  1.0000  0.493890  0.948700  0.515790  Uiso  0.025330
    O1  O2-  1.0000  0.762340  0.982580  0.515790  Uiso  0.025330
    O1  O2-  1.0000  0.058640  0.075580  0.549620  Uiso  0.025330
    O1  O2-  1.0000  0.327090  0.109470  0.549620  Uiso  0.025330
    O1  O2-  1.0000  0.595540  0.143350  0.549620  Uiso  0.025330
    O1  O2-  1.0000  0.863990  0.177230  0.549620  Uiso  0.025330
    O1  O2-  1.0000  0.024760  0.344030  0.549620  Uiso  0.025330
    O1  O2-  1.0000  0.293210  0.377920  0.549620  Uiso  0.025330
    O1  O2-  1.0000  0.561660  0.411800  0.549620  Uiso  0.025330
    O1  O2-  1.0000  0.830110  0.445680  0.549620  Uiso  0.025330
    O1  O2-  1.0000  0.259330  0.646370  0.549620  Uiso  0.025330
    O1  O2-  1.0000  0.527780  0.680250  0.549620  Uiso  0.025330
    O1  O2-  1.0000  0.796230  0.714130  0.549620  Uiso  0.025330
    O1  O2-  1.0000  0.225440  0.914820  0.549620  Uiso  0.025330
    O1  O2-  1.0000  0.493890  0.948700  0.549620  Uiso  0.025330
    O1  O2-  1.0000  0.762340  0.982580  0.549620  Uiso  0.025330
    O1  O2-  1.0000  0.058640  0.075580  0.583440  Uiso  0.025330
    O1  O2-  1.0000  0.327090  0.109470  0.583440  Uiso  0.025330
    O1  O2-  1.0000  0.595540  0.143350  0.583440  Uiso  0.025330
    O1  O2-  1.0000  0.863990  0.177230  0.583440  Uiso  0.025330
    O1  O2-  1.0000  0.024760  0.344030  0.583440  Uiso  0.025330
    O1  O2-  1.0000  0.293210  0.377920  0.583440  Uiso  0.025330
    O1  O2-  1.0000  0.561660  0.411800  0.583440  Uiso  0.025330
    O1  O2-  1.0000  0.830110  0.445680  0.583440  Uiso  0.025330
    O1  O2-  1.0000  0.259330  0.646370  0.583440  Uiso  0.025330
    O1  O2-  1.0000  0.527780  0.680250  0.583440  Uiso  0.025330
    O1  O2-  1.0000  0.796230  0.714130  0.583440  Uiso  0.025330
    O1  O2-  1.0000  0.225440  0.914820  0.583440  Uiso  0.025330
    O1  O2-  1.0000  0.493890  0.948700  0.583440  Uiso  0.025330
    O1  O2-  1.0000  0.762340  0.982580  0.583440  Uiso  0.025330
    O1  O2-  1.0000  0.058640  0.075580  0.617260  Uiso  0.025330
    O1  O2-  1.0000  0.327090  0.109470  0.617260  Uiso  0.025330
    O1  O2-  1.0000  0.595540  0.143350  0.617260  Uiso  0.025330
    O1  O2-  1.0000  0.863990  0.177230  0.617260  Uiso  0.025330
    O1  O2-  1.0000  0.024760  0.344030  0.617260  Uiso  0.025330
    O1  O2-  1.0000  0.293210  0.377920  0.617260  Uiso  0.025330
    O1  O2-  1.0000  0.561660  0.411800  0.617260  Uiso  0.025330
    O1  O2-  1.0000  0.830110  0.445680  0.617260  Uiso  0.025330
    O1  O2-  1.0000  0.259330  0.646370  0.617260  Uiso  0.025330
    O1  O2-  1.0000  0.527780  0.680250  0.617260  Uiso  0.025330
    O1  O2-  1.0000  0.796230  0.714130  0.617260  Uiso  0.025330
    O1  O2-  1.0000  0.225440  0.914820  0.617260  Uiso  0.025330
    O1  O2-  1.0000  0.493890  0.948700  0.617260  Uiso  0.025330
    O1  O2-  1.0000  0.762340  0.982580  0.617260  Uiso  0.025330
    O1  O2-  1.0000  0.058640  0.075580  0.651080  Uiso  0.025330
    O1  O2-  1.0000  0.327090  0.109470  0.651080  Uiso  0.025330
    O1  O2-  1.0000  0.595540  0.143350  0.651080  Uiso  0.025330
    O1  O2-  1.0000  0.863990  0.177230  0.651080  Uiso  0.025330
    O1  O2-  1.0000  0.024760  0.344030  0.651080  Uiso  0.025330
    O1  O2-  1.0000  0.293210  0.377920  0.651080  Uiso  0.025330
    O1  O2-  1.0000  0.561660  0.411800  0.651080  Uiso  0.025330
    O1  O2-  1.0000  0.830110  0.445680  0.651080  Uiso  0.025330
    O1  O2-  1.0000  0.259330  0.646370  0.651080  Uiso  0.025330
    O1  O2-  1.0000  0.527780  0.680250  0.651080  Uiso  0.025330
    O1  O2-  1.0000  0.796230  0.714130  0.651080  Uiso  0.025330
    O1  O2-  1.0000  0.225440  0.914820  0.651080  Uiso  0.025330
    O1  O2-  1.0000  0.493890  0.948700  0.651080  Uiso  0.025330
    O1  O2-  1.0000  0.762340  0.982580  0.651080  Uiso  0.025330
    O1  O2-  1.0000  0.058640  0.075580  0.684910  Uiso  0.025330
    O1  O2-  1.0000  0.327090  0.109470  0.684910  Uiso  0.025330
    O1  O2-  1.0000  0.595540  0.143350  0.684910  Uiso  0.025330
    O1  O2-  1.0000  0.863990  0.177230  0.684910  Uiso  0.025330
    O1  O2-  1.0000  0.024760  0.344030  0.684910  Uiso  0.025330
    O1  O2-  1.0000  0.293210  0.377920  0.684910  Uiso  0.025330
    O1  O2-  1.0000  0.561660  0.411800  0.684910  Uiso  0.025330
    O1  O2-  1.0000  0.830110  0.445680  0.684910  Uiso  0.025330
    O1  O2-  1.0000  0.259330  0.646370  0.684910  Uiso  0.025330
    O1  O2-  1.0000  0.527780  0.680250  0.684910  Uiso  0.025330
    O1  O2-  1.0000  0.796230  0.714130  0.684910  Uiso  0.025330
    O1  O2-  1.0000  0.225440  0.914820  0.684910  Uiso  0.025330
    O1  O2-  1.0000  0.493890  0.948700  0.684910  Uiso  0.025330
    O1  O2-  1.0000  0.762340  0.982580  0.684910  Uiso  0.025330
    O1  O2-  1.0000  0.058640  0.075580  0.718730  Uiso  0.025330
    O1  O2-  1.0000  0.327090  0.109470  0.718730  Uiso  0.025330
    O1  O2-  1.0000  0.595540  0.143350  0.718730  Uiso  0.025330
    O1  O2-  1.0000  0.863990  0.177230  0.718730  Uiso  0.025330
    O1  O2-  1.0000  0.024760  0.344030  0.718730  Uiso  0.025330
    O1  O2-  1.0000  0.293210  0.377920  0.718730  Uiso  0.025330
    O1  O2-  1.0000  0.561660  0.411800  0.718730  Uiso  0.025330
    O1  O2-  1.0000  0.830110  0.445680  0.718730  Uiso  0.025330
    O1  O2-  1.0000  0.259330  0.646370  0.718730  Uiso  0.025330
    O1  O2-  1.0000  0.527780  0.680250  0.718730  Uiso  0.025330
    O1  O2-  1.0000  0.796230  0.714130  0.718730  Uiso  0.025330
    O1  O2-  1.0000  0.225440  0.914820  0.718730  Uiso  0.025330
    O1  O2-  1.0000  0.493890  0.948700  0.718730  Uiso  0.025330
    O1  O2-  1.0000  0.762340  0.982580  0.718730  Uiso  0.025330
    O1  O2-  1.0000  0.058640  0.075580  0.752550  Uiso  0.025330
    O1  O2-  1.0000  0.327090  0.109470  0.752550  Uiso  0.025330
    O1  O2-  1.0000  0.595540  0.143350  0.752550  Uiso  0.025330
    O1  O2-  1.0000  0.863990  0.177230  0.752550  Uiso  0.025330
    O1  O2-  1.0000  0.024760  0.344030  0.752550  Uiso  0.025330
    O1  O2-  1.0000  0.293210  0.377920  0.752550  Uiso  0.025330
    O1  O2-  1.0000  0.561660  0.411800  0.752550  Uiso  0.025330
    O1  O2-  1.0000  0.830110  0.445680  0.752550  Uiso  0.025330
    O1  O2-  1.0000  0.259330  0.646370  0.752550  Uiso  0.025330
    O1  O2-  1.0000  0.527780  0.680250  0.752550  Uiso  0.025330
    O1  O2-  1.0000  0.796230  0.714130  0.752550  Uiso  0.025330
    O1  O2-  1.0000  0.225440  0.914820  0.752550  Uiso  0.025330
    O1  O2-  1.0000  0.493890  0.948700  0.752550  Uiso  0.025330
    O1  O2-  1.0000  0.762340  0.982580  0.752550  Uiso  0.025330
    O1  O2-  1.0000  0.058640  0.075580  0.786370  Uiso  0.025330
    O1  O2-  1.0000  0.327090  0.109470  0.786370  Uiso  0.025330
    O1  O2-  1.0000  0.595540  0.143350  0.786370  Uiso  0.025330
    O1  O2-  1.0000  0.863990  0.177230  0.786370  Uiso  0.025330
    O1  O2-  1.0000  0.024760  0.344030  0.786370  Uiso  0.025330
    O1  O2-  1.0000  0.293210  0.377920  0.786370  Uiso  0.025330
    O1  O2-  1.0000  0.561660  0.411800  0.786370  Uiso  0.025330
    O1  O2-  1.0000  0.830110  0.445680  0.786370  Uiso  0.025330
    O1  O2-  1.0000  0.259330  0.646370  0.786370  Uiso  0.025330
    O1  O2-  1.0000  0.527780  0.680250  0.786370  Uiso  0.025330
    O1  O2-  1.0000  0.796230  0.714130  0.786370  Uiso  0.025330
    O1  O2-  1.0000  0.225440  0.914820  0.786370  Uiso  0.025330
    O1  O2-  1.0000  0.493890  0.948700  0.786370  Uiso  0.025330
    O1  O2-  1.0000  0.762340  0.982580  0.786370  Uiso  0.025330
    O1  O2-  1.0000  0.058640  0.075580  0.820200  Uiso  0.025330
    O1  O2-  1.0000  0.327090  0.109470  0.820200  Uiso  0.025330
    O1  O2-  1.0000  0.595540  0.143350  0.820200  Uiso  0.025330
    O1  O2-  1.0000  0.863990  0.177230  0.820200  Uiso  0.025330
    O1  O2-  1.0000  0.024760  0.344030  0.820200  Uiso  0.025330
    O1  O2-  1.0000  0.293210  0.377920  0.820200  Uiso  0.025330
    O1  O2-  1.0000  0.561660  0.411800  0.820200  Uiso  0.025330
    O1  O2-  1.0000  0.830110  0.445680  0.820200  Uiso  0.025330
    O1  O2-  1.0000  0.259330  0.646370  0.820200  Uiso  0.025330
    O1  O2-  1.0000  0.527780  0.680250  0.820200  Uiso  0.025330
    O1  O2-  1.0000  0.796230  0.714130  0.820200  Uiso  0.025330
    O1  O2-  1.0000  0.225440  0.914820  0.820200  Uiso  0.025330
    O1  O2-  1.0000  0.493890  0.948700  0.820200  Uiso  0.025330
    O1  O2-  1.0000  0.762340  0.982580  0.820200  Uiso  0.025330
    O1  O2-  1.0000  0.058640  0.075580  0.854020  Uiso  0.025330
    O1  O2-  1.0000  0.327090  0.109470  0.854020  Uiso  0.025330
    O1  O2-  1.0000  0.595540  0.143350  0.854020  Uiso  0.025330
    O1  O2-  1.0000  0.863990  0.177230  0.854020  Uiso  0.025330
    O1  O2-  1.0000  0.024760  0.344030  0.854020  Uiso  0.025330
    O1  O2-  1.0000  0.293210  0.377920  0.854020  Uiso  0.025330
    O1  O2-  1.0000  0.561660  0.411800  0.854020  Uiso  0.025330
    O1  O2-  1.0000  0.830110  0.445680  0.854020  Uiso  0.025330
    O1  O2-  1.0000  0.259330  0.646370  0.854020  Uiso  0.025330
    O1  O2-  1.0000  0.527780  0.680250  0.854020  Uiso  0.025330
    O1  O2-  1.0000  0.796230  0.714130  0.854020  Uiso  0.025330
    O1  O2-  1.0000  0.225440  0.914820  0.854020  Uiso  0.025330
    O1  O2-  1.0000  0.493890  0.948700  0.854020  Uiso  0.025330
    O1  O2-  1.0000  0.762340  0.982580  0.854020  Uiso  0.025330
    O1  O2-  1.0000  0.058640  0.075580  0.887840  Uiso  0.025330
    O1  O2-  1.0000  0.327090  0.109470  0.887840  Uiso  0.025330
    O1  O2-  1.0000  0.595540  0.143350  0.887840  Uiso  0.025330
    O1  O2-  1.0000  0.863990  0.177230  0.887840  Uiso  0.025330
    O1  O2-  1.0000  0.024760  0.344030  0.887840  Uiso  0.025330
    O1  O2-  1.0000  0.293210  0.377920  0.887840  Uiso  0.025330
    O1  O2-  1.0000  0.561660  0.411800  0.887840  Uiso  0.025330
    O1  O2-  1.0000  0.830110  0.445680  0.887840  Uiso  0.025330
    O1  O2-  1.0000  0.259330  0.646370  0.887840  Uiso  0.025330
    O1  O2-  1.0000  0.527780  0.680250  0.887840  Uiso  0.025330
    O1  O2-  1.0000  0.796230  0.714130  0.887840  Uiso  0.025330
    O1  O2-  1.0000  0.225440  0.914820  0.887840  Uiso  0.025330
    O1  O2-  1.0000  0.493890  0.948700  0.887840  Uiso  0.025330
    O1  O2-  1.0000  0.762340  0.982580  0.887840  Uiso  0.025330
    O1  O2-  1.0000  0.058640  0.075580  0.921660  Uiso  0.025330
    O1  O2-  1.0000  0.327090  0.109470  0.921660  Uiso  0.025330
    O1  O2-  1.0000  0.595540  0.143350  0.921660  Uiso  0.025330
    O1  O2-  1.0000  0.863990  0.177230  0.921660  Uiso  0.025330
    O1  O2-  1.0000  0.024760  0.344030  0.921660  Uiso  0.025330
    O1  O2-  1.0000  0.293210  0.377920  0.921660  Uiso  0.025330
    O1  O2-  1.0000  0.561660  0.411800  0.921660  Uiso  0.025330
    O1  O2-  1.0000  0.830110  0.445680  0.921660  Uiso  0.025330
    O1  O2-  1.0000  0.259330  0.646370  0.921660  Uiso  0.025330
    O1  O2-  1.0000  0.527780  0.680250  0.921660  Uiso  0.025330
    O1  O2-  1.0000  0.796230  0.714130  0.921660  Uiso  0.025330
    O1  O2-  1.0000  0.225440  0.914820  0.921660  Uiso  0.025330
    O1  O2-  1.0000  0.493890  0.948700  0.921660  Uiso  0.025330
    O1  O2-  1.0000  0.762340  0.982580  0.921660  Uiso  0.025330
    O1  O2-  1.0000  0.058640  0.075580  0.955490  Uiso  0.025330
    O1  O2-  1.0000  0.327090  0.109470  0.955490  Uiso  0.025330
    O1  O2-  1.0000  0.595540  0.143350  0.955490  Uiso  0.025330
    O1  O2-  1.0000  0.863990  0.177230  0.955490  Uiso  0.025330
    O1  O2-  1.0000  0.024760  0.344030  0.955490  Uiso  0.025330
    O1  O2-  1.0000  0.293210  0.377920  0.955490  Uiso  0.025330
    O1  O2-  1.0000  0.561660  0.411800  0.955490  Uiso  0.025330
    O1  O2-  1.0000  0.830110  0.445680  0.955490  Uiso  0.025330
    O1  O2-  1.0000  0.259330  0.646370  0.955490  Uiso  0.025330
    O1  O2-  1.0000  0.527780  0.680250  0.955490  Uiso  0.025330
    O1  O2-  1.0000  0.796230  0.714130  0.955490  Uiso  0.025330
    O1  O2-  1.0000  0.225440  0.914820  0.955490  Uiso  0.025330
    O1  O2-  1.0000  0.493890  0.948700  0.955490  Uiso  0.025330
    O1  O2-  1.0000  0.762340  0.982580  0.955490  Uiso  0.025330
    O1  O2-  1.0000  0.058640  0.075580  0.989310  Uiso  0.025330
    O1  O2-  1.0000  0.327090  0.109470  0.989310  Uiso  0.025330
    O1  O2-  1.0000  0.595540  0.143350  0.989310  Uiso  0.025330
    O1  O2-  1.0000  0.863990  0.177230  0.989310  Uiso  0.025330
    O1  O2-  1.0000  0.024760  0.344030  0.989310  Uiso  0.025330
    O1  O2-  1.0000  0.293210  0.377920  0.989310  Uiso  0.025330
    O1  O2-  1.0000  0.561660  0.411800  0.989310  Uiso  0.025330
    O1  O2-  1.0000  0.830110  0.445680  0.989310  Uiso  0.025330
    O1  O2-  1.0000  0.259330  0.646370  0.989310  Uiso  0.025330
    O1  O2-  1.0000  0.527780  0.680250  0.989310  Uiso  0.025330
    O1  O2-  1.0000  0.796230  0.714130  0.989310  Uiso  0.025330
    O1  O2-  1.0000  0.225440  0.914820  0.989310  Uiso  0.025330
    O1  O2-  1.0000  0.493890  0.948700  0.989310  Uiso  0.025330
    O1  O2-  1.0000  0.762340  0.982580  0.989310  Uiso  0.025330
    O1  O2-  1.0000  0.058640  0.075580  0.025370  Uiso  0.025330
    O1  O2-  1.0000  0.327090  0.109470  0.025370  Uiso  0.025330
    O1  O2-  1.0000  0.595540  0.143350  0.025370  Uiso  0.025330
    O1  O2-  1.0000  0.863990  0.177230  0.025370  Uiso  0.025330
    O1  O2-  1.0000  0.024760  0.344030  0.025370  Uiso  0.025330
    O1  O2-  1.0000  0.293210  0.377920  0.025370  Uiso  0.025330
    O1  O2-  1.0000  0.561660  0.411800  0.025370  Uiso  0.025330
    O1  O2-  1.0000  0.830110  0.445680  0.025370  Uiso  0.025330
    O1  O2-  1.0000  0.259330  0.646370  0.025370  Uiso  0.025330
    O1  O2-  1.0000  0.527780  0.680250  0.025370  Uiso  0.025330
    O1  O2-  1.0000  0.796230  0.714130  0.025370  Uiso  0.025330
    O1  O2-  1.0000  0.225440  0.914820  0.025370  Uiso  0.025330
    O1  O2-  1.0000  0.493890  0.948700  0.025370  Uiso  0.025330
    O1  O2-  1.0000  0.762340  0.982580  0.025370  Uiso  0.025330
    O1  O2-  1.0000  0.058640  0.075580  0.059190  Uiso  0.025330
    O1  O2-  1.0000  0.327090  0.109470  0.059190  Uiso  0.025330
    O1  O2-  1.0000  0.595540  0.143350  0.059190  Uiso  0.025330
    O1  O2-  1.0000  0.863990  0.177230  0.059190  Uiso  0.025330
    O1  O2-  1.0000  0.024760  0.344030  0.059190  Uiso  0.025330
    O1  O2-  1.0000  0.293210  0.377920  0.059190  Uiso  0.025330
    O1  O2-  1.0000  0.561660  0.411800  0.059190  Uiso  0.025330
    O1  O2-  1.0000  0.830110  0.445680  0.059190  Uiso  0.025330
    O1  O2-  1.0000  0.259330  0.646370  0.059190  Uiso  0.025330
    O1  O2-  1.0000  0.527780  0.680250  0.059190  Uiso  0.025330
    O1  O2-  1.0000  0.796230  0.714130  0.059190  Uiso  0.025330
    O1  O2-  1.0000  0.225440  0.914820  0.059190  Uiso  0.025330
    O1  O2-  1.0000  0.493890  0.948700  0.059190  Uiso  0.025330
    O1  O2-  1.0000  0.762340  0.982580  0.059190  Uiso  0.025330
    O1  O2-  1.0000  0.058640  0.075580  0.093010  Uiso  0.025330
    O1  O2-  1.0000  0.327090  0.109470  0.093010  Uiso  0.025330
    O1  O2-  1.0000  0.595540  0.143350  0.093010  Uiso  0.025330
    O1  O2-  1.0000  0.863990  0.177230  0.093010  Uiso  0.025330
    O1  O2-  1.0000  0.024760  0.344030  0.093010  Uiso  0.025330
    O1  O2-  1.0000  0.293210  0.377920  0.093010  Uiso  0.025330
    O1  O2-  1.0000  0.561660  0.411800  0.093010  Uiso  0.025330
    O1  O2-  1.0000  0.830110  0.445680  0.093010  Uiso  0.025330
    O1  O2-  1.0000  0.259330  0.646370  0.093010  Uiso  0.025330
    O1  O2-  1.0000  0.527780  0.680250  0.093010  Uiso  0.025330
    O1  O2-  1.0000  0.796230  0.714130  0.093010  Uiso  0.025330
    O1  O2-  1.0000  0.225440  0.914820  0.093010  Uiso  0.025330
    O1  O2-  1.0000  0.493890  0.948700  0.093010  Uiso  0.025330
    O1  O2-  1.0000  0.762340  0.982580  0.093010  Uiso  0.025330
    O1  O2-  1.0000  0.058640  0.075580  0.126830  Uiso  0.025330
    O1  O2-  1.0000  0.327090  0.109470  0.126830  Uiso  0.025330
    O1  O2-  1.0000  0.595540  0.143350  0.126830  Uiso  0.025330
    O1  O2-  1.0000  0.863990  0.177230  0.126830  Uiso  0.025330
    O1  O2-  1.0000  0.024760  0.344030  0.126830  Uiso  0.025330
    O1  O2-  1.0000  0.293210  0.377920  0.126830  Uiso  0.025330
    O1  O2-  1.0000  0.561660  0.411800  0.126830  Uiso  0.025330
    O1  O2-  1.0000  0.830110  0.445680  0.126830  Uiso  0.025330
    O1  O2-  1.0000  0.259330  0.646370  0.126830  Uiso  0.025330
    O1  O2-  1.0000  0.527780  0.680250  0.126830  Uiso  0.025330
    O1  O2-  1.0000  0.796230  0.714130  0.126830  Uiso  0.025330
    O1  O2-  1.0000  0.225440  0.914820  0.126830  Uiso  0.025330
    O1  O2-  1.0000  0.493890  0.948700  0.126830  Uiso  0.025330
    O1  O2-  1.0000  0.762340  0.982580  0.126830  Uiso  0.025330
    O1  O2-  1.0000  0.058640  0.075580  0.160660  Uiso  0.025330
    O1  O2-  1.0000  0.327090  0.109470  0.160660  Uiso  0.025330
    O1  O2-  1.0000  0.595540  0.143350  0.160660  Uiso  0.025330
    O1  O2-  1.0000  0.863990  0.177230  0.160660  Uiso  0.025330
    O1  O2-  1.0000  0.024760  0.344030  0.160660  Uiso  0.025330
    O1  O2-  1.0000  0.293210  0.377920  0.160660  Uiso  0.025330
    O1  O2-  1.0000  0.561660  0.411800  0.160660  Uiso  0.025330
    O1  O2-  1.0000  0.830110  0.445680  0.160660  Uiso  0.025330
    O1  O2-  1.0000  0.259330  0.646370  0.160660  Uiso  0.025330
    O1  O2-  1.0000  0.527780  0.680250  0.160660  Uiso  0.025330
    O1  O2-  1.0000  0.796230  0.714130  0.160660  Uiso  0.025330
    O1  O2-  1.0000  0.225440  0.914820  0.160660  Uiso  0.025330
    O1  O2-  1.0000  0.493890  0.948700  0.160660  Uiso  0.025330
    O1  O2-  1.0000  0.762340  0.982580  0.160660  Uiso  0.025330
    O1  O2-  1.0000  0.058640  0.075580  0.194480  Uiso  0.025330
    O1  O2-  1.0000  0.327090  0.109470  0.194480  Uiso  0.025330
    O1  O2-  1.0000  0.595540  0.143350  0.194480  Uiso  0.025330
    O1  O2-  1.0000  0.863990  0.177230  0.194480  Uiso  0.025330
    O1  O2-  1.0000  0.024760  0.344030  0.194480  Uiso  0.025330
    O1  O2-  1.0000  0.293210  0.377920  0.194480  Uiso  0.025330
    O1  O2-  1.0000  0.561660  0.411800  0.194480  Uiso  0.025330
    O1  O2-  1.0000  0.830110  0.445680  0.194480  Uiso  0.025330
    O1  O2-  1.0000  0.259330  0.646370  0.194480  Uiso  0.025330
    O1  O2-  1.0000  0.527780  0.680250  0.194480  Uiso  0.025330
    O1  O2-  1.0000  0.796230  0.714130  0.194480  Uiso  0.025330
    O1  O2-  1.0000  0.225440  0.914820  0.194480  Uiso  0.025330
    O1  O2-  1.0000  0.493890  0.948700  0.194480  Uiso  0.025330
    O1  O2-  1.0000  0.762340  0.982580  0.194480  Uiso  0.025330
    O1  O2-  1.0000  0.058640  0.075580  0.228300  Uiso  0.025330
    O1  O2-  1.0000  0.327090  0.109470  0.228300  Uiso  0.025330
    O1  O2-  1.0000  0.595540  0.143350  0.228300  Uiso  0.025330
    O1  O2-  1.0000  0.863990  0.177230  0.228300  Uiso  0.025330
    O1  O2-  1.0000  0.024760  0.344030  0.228300  Uiso  0.025330
    O1  O2-  1.0000  0.293210  0.377920  0.228300  Uiso  0.025330
    O1  O2-  1.0000  0.561660  0.411800  0.228300  Uiso  0.025330
    O1  O2-  1.0000  0.830110  0.445680  0.228300  Uiso  0.025330
    O1  O2-  1.0000  0.259330  0.646370  0.228300  Uiso  0.025330
    O1  O2-  1.0000  0.527780  0.680250  0.228300  Uiso  0.025330
    O1  O2-  1.0000  0.796230  0.714130  0.228300  Uiso  0.025330
    O1  O2-  1.0000  0.225440  0.914820  0.228300  Uiso  0.025330
    O1  O2-  1.0000  0.493890  0.948700  0.228300  Uiso  0.025330
    O1  O2-  1.0000  0.762340  0.982580  0.228300  Uiso  0.025330
    O1  O2-  1.0000  0.058640  0.075580  0.262120  Uiso  0.025330
    O1  O2-  1.0000  0.327090  0.109470  0.262120  Uiso  0.025330
    O1  O2-  1.0000  0.595540  0.143350  0.262120  Uiso  0.025330
    O1  O2-  1.0000  0.863990  0.177230  0.262120  Uiso  0.025330
    O1  O2-  1.0000  0.024760  0.344030  0.262120  Uiso  0.025330
    O1  O2-  1.0000  0.293210  0.377920  0.262120  Uiso  0.025330
    O1  O2-  1.0000  0.561660  0.411800  0.262120  Uiso  0.025330
    O1  O2-  1.0000  0.830110  0.445680  0.262120  Uiso  0.025330
    O1  O2-  1.0000  0.259330  0.646370  0.262120  Uiso  0.025330
    O1  O2-  1.0000  0.527780  0.680250  0.262120  Uiso  0.025330
    O1  O2-  1.0000  0.796230  0.714130  0.262120  Uiso  0.025330
    O1  O2-  1.0000  0.225440  0.914820  0.262120  Uiso  0.025330
    O1  O2-  1.0000  0.493890  0.948700  0.262120  Uiso  0.025330
    O1  O2-  1.0000  0.762340  0.982580  0.262120  Uiso  0.025330
    O1  O2-  1.0000  0.058640  0.075580  0.295950  Uiso  0.025330
    O1  O2-  1.0000  0.327090  0.109470  0.295950  Uiso  0.025330
    O1  O2-  1.0000  0.595540  0.143350  0.295950  Uiso  0.025330
    O1  O2-  1.0000  0.863990  0.177230  0.295950  Uiso  0.025330
    O1  O2-  1.0000  0.024760  0.344030  0.295950  Uiso  0.025330
    O1  O2-  1.0000  0.293210  0.377920  0.295950  Uiso  0.025330
    O1  O2-  1.0000  0.561660  0.411800  0.295950  Uiso  0.025330
    O1  O2-  1.0000  0.830110  0.445680  0.295950  Uiso  0.025330
    O1  O2-  1.0000  0.259330  0.646370  0.295950  Uiso  0.025330
    O1  O2-  1.0000  0.527780  0.680250  0.295950  Uiso  0.025330
    O1  O2-  1.0000  0.796230  0.714130  0.295950  Uiso  0.025330
    O1  O2-  1.0000  0.225440  0.914820  0.295950  Uiso  0.025330
    O1  O2-  1.0000  0.493890  0.948700  0.295950  Uiso  0.025330
    O1  O2-  1.0000  0.762340  0.982580  0.295950  Uiso  0.025330
    O1  O2-  1.0000  0.058640  0.075580  0.329770  Uiso  0.025330
    O1  O2-  1.0000  0.327090  0.109470  0.329770  Uiso  0.025330
    O1  O2-  1.0000  0.595540  0.143350  0.329770  Uiso  0.025330
    O1  O2-  1.0000  0.863990  0.177230  0.329770  Uiso  0.025330
    O1  O2-  1.0000  0.024760  0.344030  0.329770  Uiso  0.025330
    O1  O2-  1.0000  0.293210  0.377920  0.329770  Uiso  0.025330
    O1  O2-  1.0000  0.561660  0.411800  0.329770  Uiso  0.025330
    O1  O2-  1.0000  0.830110  0.445680  0.329770  Uiso  0.025330
    O1  O2-  1.0000  0.259330  0.646370  0.329770  Uiso  0.025330
    O1  O2-  1.0000  0.527780  0.680250  0.329770  Uiso  0.025330
    O1  O2-  1.0000  0.796230  0.714130  0.329770  Uiso  0.025330
    O1  O2-  1.0000  0.225440  0.914820  0.329770  Uiso  0.025330
    O1  O2-  1.0000  0.493890  0.948700  0.329770  Uiso  0.025330
    O1  O2-  1.0000  0.762340  0.982580  0.329770  Uiso  0.025330
    O1  O2-  1.0000  0.058640  0.075580  0.363590  Uiso  0.025330
    O1  O2-  1.0000  0.327090  0.109470  0.363590  Uiso  0.025330
    O1  O2-  1.0000  0.595540  0.143350  0.363590  Uiso  0.025330
    O1  O2-  1.0000  0.863990  0.177230  0.363590  Uiso  0.025330
    O1  O2-  1.0000  0.024760  0.344030  0.363590  Uiso  0.025330
    O1  O2-  1.0000  0.293210  0.377920  0.363590  Uiso  0.025330
    O1  O2-  1.0000  0.561660  0.411800  0.363590  Uiso  0.025330
    O1  O2-  1.0000  0.830110  0.445680  0.363590  Uiso  0.025330
    O1  O2-  1.0000  0.259330  0.646370  0.363590  Uiso  0.025330
    O1  O2-  1.0000  0.527780  0.680250  0.363590  Uiso  0.025330
    O1  O2-  1.0000  0.796230  0.714130  0.363590  Uiso  0.025330
    O1  O2-  1.0000  0.225440  0.914820  0.363590  Uiso  0.025330
    O1  O2-  1.0000  0.493890  0.948700  0.363590  Uiso  0.025330
    O1  O2-  1.0000  0.762340  0.982580  0.363590  Uiso  0.025330
    O1  O2-  1.0000  0.058640  0.075580  0.397410  Uiso  0.025330
    O1  O2-  1.0000  0.327090  0.109470  0.397410  Uiso  0.025330
    O1  O2-  1.0000  0.595540  0.143350  0.397410  Uiso  0.025330
    O1  O2-  1.0000  0.863990  0.177230  0.397410  Uiso  0.025330
    O1  O2-  1.0000  0.024760  0.344030  0.397410  Uiso  0.025330
    O1  O2-  1.0000  0.293210  0.377920  0.397410  Uiso  0.025330
    O1  O2-  1.0000  0.561660  0.411800  0.397410  Uiso  0.025330
    O1  O2-  1.0000  0.830110  0.445680  0.397410  Uiso  0.025330
    O1  O2-  1.0000  0.259330  0.646370  0.397410  Uiso  0.025330
    O1  O2-  1.0000  0.527780  0.680250  0.397410  Uiso  0.025330
    O1  O2-  1.0000  0.796230  0.714130  0.397410  Uiso  0.025330
    O1  O2-  1.0000  0.225440  0.914820  0.397410  Uiso  0.025330
    O1  O2-  1.0000  0.493890  0.948700  0.397410  Uiso  0.025330
    O1  O2-  1.0000  0.762340  0.982580  0.397410  Uiso  0.025330
    O1  O2-  1.0000  0.058640  0.075580  0.431240  Uiso  0.025330
    O1  O2-  1.0000  0.327090  0.109470  0.431240  Uiso  0.025330
    O1  O2-  1.0000  0.595540  0.143350  0.431240  Uiso  0.025330
    O1  O2-  1.0000  0.863990  0.177230  0.431240  Uiso  0.025330
    O1  O2-  1.0000  0.024760  0.344030  0.431240  Uiso  0.025330
    O1  O2-  1.0000  0.293210  0.377920  0.431240  Uiso  0.025330
    O1  O2-  1.0000  0.561660  0.411800  0.431240  Uiso  0.025330
    O1  O2-  1.0000  0.830110  0.445680  0.431240  Uiso  0.025330
    O1  O2-  1.0000  0.259330  0.646370  0.431240  Uiso  0.025330
    O1  O2-  1.0000  0.527780  0.680250  0.431240  Uiso  0.025330
    O1  O2-  1.0000  0.796230  0.714130  0.431240  Uiso  0.025330
    O1  O2-  1.0000  0.225440  0.914820  0.431240  Uiso  0.025330
    O1  O2-  1.0000  0.493890  0.948700  0.431240  Uiso  0.025330
    O1  O2-  1.0000  0.762340  0.982580  0.431240  Uiso  0.025330
    O1  O2-  1.0000  0.058640  0.075580  0.465060  Uiso  0.025330
    O1  O2-  1.0000  0.327090  0.109470  0.465060  Uiso  0.025330
    O1  O2-  1.0000  0.595540  0.143350  0.465060  Uiso  0.025330
    O1  O2-  1.0000  0.863990  0.177230  0.465060  Uiso  0.025330
    O1  O2-  1.0000  0.024760  0.344030  0.465060  Uiso  0.025330
    O1  O2-  1.0000  0.293210  0.377920  0.465060  Uiso  0.025330
    O1  O2-  1.0000  0.561660  0.411800  0.465060  Uiso  0.025330
    O1  O2-  1.0000  0.830110  0.445680  0.465060  Uiso  0.025330
    O1  O2-  1.0000  0.259330  0.646370  0.465060  Uiso  0.025330
    O1  O2-  1.0000  0.527780  0.680250  0.465060  Uiso  0.025330
    O1  O2-  1.0000  0.796230  0.714130  0.465060  Uiso  0.025330
    O1  O2-  1.0000  0.225440  0.914820  0.465060  Uiso  0.025330
    O1  O2-  1.0000  0.493890  0.948700  0.465060  Uiso  0.025330
    O1  O2-  1.0000  0.762340  0.982580  0.465060  Uiso  0.025330
    O1  O2-  1.0000  0.058640  0.075580  0.498880  Uiso  0.025330
    O1  O2-  1.0000  0.327090  0.109470  0.498880  Uiso  0.025330
    O1  O2-  1.0000  0.595540  0.143350  0.498880  Uiso  0.025330
    O1  O2-  1.0000  0.863990  0.177230  0.498880  Uiso  0.025330
    O1  O2-  1.0000  0.024760  0.344030  0.498880  Uiso  0.025330
    O1  O2-  1.0000  0.293210  0.377920  0.498880  Uiso  0.025330
    O1  O2-  1.0000  0.561660  0.411800  0.498880  Uiso  0.025330
    O1  O2-  1.0000  0.830110  0.445680  0.498880  Uiso  0.025330
    O1  O2-  1.0000  0.259330  0.646370  0.498880  Uiso  0.025330
    O1  O2-  1.0000  0.527780  0.680250  0.498880  Uiso  0.025330
    O1  O2-  1.0000  0.796230  0.714130  0.498880  Uiso  0.025330
    O1  O2-  1.0000  0.225440  0.914820  0.498880  Uiso  0.025330
    O1  O2-  1.0000  0.493890  0.948700  0.498880  Uiso  0.025330
    O1  O2-  1.0000  0.762340  0.982580  0.498880  Uiso  0.025330
    O1  O2-  1.0000  0.058640  0.075580  0.532700  Uiso  0.025330
    O1  O2-  1.0000  0.327090  0.109470  0.532700  Uiso  0.025330
    O1  O2-  1.0000  0.595540  0.143350  0.532700  Uiso  0.025330
    O1  O2-  1.0000  0.863990  0.177230  0.532700  Uiso  0.025330
    O1  O2-  1.0000  0.024760  0.344030  0.532700  Uiso  0.025330
    O1  O2-  1.0000  0.293210  0.377920  0.532700  Uiso  0.025330
    O1  O2-  1.0000  0.561660  0.411800  0.532700  Uiso  0.025330
    O1  O2-  1.0000  0.830110  0.445680  0.532700  Uiso  0.025330
    O1  O2-  1.0000  0.259330  0.646370  0.532700  Uiso  0.025330
    O1  O2-  1.0000  0.527780  0.680250  0.532700  Uiso  0.025330
    O1  O2-  1.0000  0.796230  0.714130  0.532700  Uiso  0.025330
    O1  O2-  1.0000  0.225440  0.914820  0.532700  Uiso  0.025330
    O1  O2-  1.0000  0.493890  0.948700  0.532700  Uiso  0.025330
    O1  O2-  1.0000  0.762340  0.982580  0.532700  Uiso  0.025330
    O1  O2-  1.0000  0.058640  0.075580  0.566530  Uiso  0.025330
    O1  O2-  1.0000  0.327090  0.109470  0.566530  Uiso  0.025330
    O1  O2-  1.0000  0.595540  0.143350  0.566530  Uiso  0.025330
    O1  O2-  1.0000  0.863990  0.177230  0.566530  Uiso  0.025330
    O1  O2-  1.0000  0.024760  0.344030  0.566530  Uiso  0.025330
    O1  O2-  1.0000  0.293210  0.377920  0.566530  Uiso  0.025330
    O1  O2-  1.0000  0.561660  0.411800  0.566530  Uiso  0.025330
    O1  O2-  1.0000  0.830110  0.445680  0.566530  Uiso  0.025330
    O1  O2-  1.0000  0.259330  0.646370  0.566530  Uiso  0.025330
    O1  O2-  1.0000  0.527780  0.680250  0.566530  Uiso  0.025330
    O1  O2-  1.0000  0.796230  0.714130  0.566530  Uiso  0.025330
    O1  O2-  1.0000  0.225440  0.914820  0.566530  Uiso  0.025330
    O1  O2-  1.0000  0.493890  0.948700  0.566530  Uiso  0.025330
    O1  O2-  1.0000  0.762340  0.982580  0.566530  Uiso  0.025330
    O1  O2-  1.0000  0.058640  0.075580  0.600350  Uiso  0.025330
    O1  O2-  1.0000  0.327090  0.109470  0.600350  Uiso  0.025330
    O1  O2-  1.0000  0.595540  0.143350  0.600350  Uiso  0.025330
    O1  O2-  1.0000  0.863990  0.177230  0.600350  Uiso  0.025330
    O1  O2-  1.0000  0.024760  0.344030  0.600350  Uiso  0.025330
    O1  O2-  1.0000  0.293210  0.377920  0.600350  Uiso  0.025330
    O1  O2-  1.0000  0.561660  0.411800  0.600350  Uiso  0.025330
    O1  O2-  1.0000  0.830110  0.445680  0.600350  Uiso  0.025330
    O1  O2-  1.0000  0.259330  0.646370  0.600350  Uiso  0.025330
    O1  O2-  1.0000  0.527780  0.680250  0.600350  Uiso  0.025330
    O1  O2-  1.0000  0.796230  0.714130  0.600350  Uiso  0.025330
    O1  O2-  1.0000  0.225440  0.914820  0.600350  Uiso  0.025330
    O1  O2-  1.0000  0.493890  0.948700  0.600350  Uiso  0.025330
    O1  O2-  1.0000  0.762340  0.982580  0.600350  Uiso  0.025330
    O1  O2-  1.0000  0.058640  0.075580  0.634170  Uiso  0.025330
    O1  O2-  1.0000  0.327090  0.109470  0.634170  Uiso  0.025330
    O1  O2-  1.0000  0.595540  0.143350  0.634170  Uiso  0.025330
    O1  O2-  1.0000  0.863990  0.177230  0.634170  Uiso  0.025330
    O1  O2-  1.0000  0.024760  0.344030  0.634170  Uiso  0.025330
    O1  O2-  1.0000  0.293210  0.377920  0.634170  Uiso  0.025330
    O1  O2-  1.0000  0.561660  0.411800  0.634170  Uiso  0.025330
    O1  O2-  1.0000  0.830110  0.445680  0.634170  Uiso  0.025330
    O1  O2-  1.0000  0.259330  0.646370  0.634170  Uiso  0.025330
    O1  O2-  1.0000  0.527780  0.680250  0.634170  Uiso  0.025330
    O1  O2-  1.0000  0.796230  0.714130  0.634170  Uiso  0.025330
    O1  O2-  1.0000  0.225440  0.914820  0.634170  Uiso  0.025330
    O1  O2-  1.0000  0.493890  0.948700  0.634170  Uiso  0.025330
    O1  O2-  1.0000  0.762340  0.982580  0.634170  Uiso  0.025330
    O1  O2-  1.0000  0.058640  0.075580  0.667990  Uiso  0.025330
    O1  O2-  1.0000  0.327090  0.109470  0.667990  Uiso  0.025330
    O1  O2-  1.0000  0.595540  0.143350  0.667990  Uiso  0.025330
    O1  O2-  1.0000  0.863990  0.177230  0.667990  Uiso  0.025330
    O1  O2-  1.0000  0.024760  0.344030  0.667990  Uiso  0.025330
    O1  O2-  1.0000  0.293210  0.377920  0.667990  Uiso  0.025330
    O1  O2-  1.0000  0.561660  0.411800  0.667990  Uiso  0.025330
    O1  O2-  1.0000  0.830110  0.445680  0.667990  Uiso  0.025330
    O1  O2-  1.0000  0.259330  0.646370  0.667990  Uiso  0.025330
    O1  O2-  1.0000  0.527780  0.680250  0.667990  Uiso  0.025330
    O1  O2-  1.0000  0.796230  0.714130  0.667990  Uiso  0.025330
    O1  O2-  1.0000  0.225440  0.914820  0.667990  Uiso  0.025330
    O1  O2-  1.0000  0.493890  0.948700  0.667990  Uiso  0.025330
    O1  O2-  1.0000  0.762340  0.982580  0.667990  Uiso  0.025330
    O1  O2-  1.0000  0.058640  0.075580  0.701820  Uiso  0.025330
    O1  O2-  1.0000  0.327090  0.109470  0.701820  Uiso  0.025330
    O1  O2-  1.0000  0.595540  0.143350  0.701820  Uiso  0.025330
    O1  O2-  1.0000  0.863990  0.177230  0.701820  Uiso  0.025330
    O1  O2-  1.0000  0.024760  0.344030  0.701820  Uiso  0.025330
    O1  O2-  1.0000  0.293210  0.377920  0.701820  Uiso  0.025330
    O1  O2-  1.0000  0.561660  0.411800  0.701820  Uiso  0.025330
    O1  O2-  1.0000  0.830110  0.445680  0.701820  Uiso  0.025330
    O1  O2-  1.0000  0.259330  0.646370  0.701820  Uiso  0.025330
    O1  O2-  1.0000  0.527780  0.680250  0.701820  Uiso  0.025330
    O1  O2-  1.0000  0.796230  0.714130  0.701820  Uiso  0.025330
    O1  O2-  1.0000  0.225440  0.914820  0.701820  Uiso  0.025330
    O1  O2-  1.0000  0.493890  0.948700  0.701820  Uiso  0.025330
    O1  O2-  1.0000  0.762340  0.982580  0.701820  Uiso  0.025330
    O1  O2-  1.0000  0.058640  0.075580  0.735640  Uiso  0.025330
    O1  O2-  1.0000  0.327090  0.109470  0.735640  Uiso  0.025330
    O1  O2-  1.0000  0.595540  0.143350  0.735640  Uiso  0.025330
    O1  O2-  1.0000  0.863990  0.177230  0.735640  Uiso  0.025330
    O1  O2-  1.0000  0.024760  0.344030  0.735640  Uiso  0.025330
    O1  O2-  1.0000  0.293210  0.377920  0.735640  Uiso  0.025330
    O1  O2-  1.0000  0.561660  0.411800  0.735640  Uiso  0.025330
    O1  O2-  1.0000  0.830110  0.445680  0.735640  Uiso  0.025330
    O1  O2-  1.0000  0.259330  0.646370  0.735640  Uiso  0.025330
    O1  O2-  1.0000  0.527780  0.680250  0.735640  Uiso  0.025330
    O1  O2-  1.0000  0.796230  0.714130  0.735640  Uiso  0.025330
    O1  O2-  1.0000  0.225440  0.914820  0.735640  Uiso  0.025330
    O1  O2-  1.0000  0.493890  0.948700  0.735640  Uiso  0.025330
    O1  O2-  1.0000  0.762340  0.982580  0.735640  Uiso  0.025330
    O1  O2-  1.0000  0.058640  0.075580  0.769460  Uiso  0.025330
    O1  O2-  1.0000  0.327090  0.109470  0.769460  Uiso  0.025330
    O1  O2-  1.0000  0.595540  0.143350  0.769460  Uiso  0.025330
    O1  O2-  1.0000  0.863990  0.177230  0.769460  Uiso  0.025330
    O1  O2-  1.0000  0.024760  0.344030  0.769460  Uiso  0.025330
    O1  O2-  1.0000  0.293210  0.377920  0.769460  Uiso  0.025330
    O1  O2-  1.0000  0.561660  0.411800  0.769460  Uiso  0.025330
    O1  O2-  1.0000  0.830110  0.445680  0.769460  Uiso  0.025330
    O1  O2-  1.0000  0.259330  0.646370  0.769460  Uiso  0.025330
    O1  O2-  1.0000  0.527780  0.680250  0.769460  Uiso  0.025330
    O1  O2-  1.0000  0.796230  0.714130  0.769460  Uiso  0.025330
    O1  O2-  1.0000  0.225440  0.914820  0.769460  Uiso  0.025330
    O1  O2-  1.0000  0.493890  0.948700  0.769460  Uiso  0.025330
    O1  O2-  1.0000  0.762340  0.982580  0.769460  Uiso  0.025330
    O1  O2-  1.0000  0.058640  0.075580  0.803280  Uiso  0.025330
    O1  O2-  1.0000  0.327090  0.109470  0.803280  Uiso  0.025330
    O1  O2-  1.0000  0.595540  0.143350  0.803280  Uiso  0.025330
    O1  O2-  1.0000  0.863990  0.177230  0.803280  Uiso  0.025330
    O1  O2-  1.0000  0.024760  0.344030  0.803280  Uiso  0.025330
    O1  O2-  1.0000  0.293210  0.377920  0.803280  Uiso  0.025330
    O1  O2-  1.0000  0.561660  0.411800  0.803280  Uiso  0.025330
    O1  O2-  1.0000  0.830110  0.445680  0.803280  Uiso  0.025330
    O1  O2-  1.0000  0.259330  0.646370  0.803280  Uiso  0.025330
    O1  O2-  1.0000  0.527780  0.680250  0.803280  Uiso  0.025330
    O1  O2-  1.0000  0.796230  0.714130  0.803280  Uiso  0.025330
    O1  O2-  1.0000  0.225440  0.914820  0.803280  Uiso  0.025330
    O1  O2-  1.0000  0.493890  0.948700  0.803280  Uiso  0.025330
    O1  O2-  1.0000  0.762340  0.982580  0.803280  Uiso  0.025330
    O1  O2-  1.0000  0.058640  0.075580  0.837110  Uiso  0.025330
    O1  O2-  1.0000  0.327090  0.109470  0.837110  Uiso  0.025330
    O1  O2-  1.0000  0.595540  0.143350  0.837110  Uiso  0.025330
    O1  O2-  1.0000  0.863990  0.177230  0.837110  Uiso  0.025330
    O1  O2-  1.0000  0.024760  0.344030  0.837110  Uiso  0.025330
    O1  O2-  1.0000  0.293210  0.377920  0.837110  Uiso  0.025330
    O1  O2-  1.0000  0.561660  0.411800  0.837110  Uiso  0.025330
    O1  O2-  1.0000  0.830110  0.445680  0.837110  Uiso  0.025330
    O1  O2-  1.0000  0.259330  0.646370  0.837110  Uiso  0.025330
    O1  O2-  1.0000  0.527780  0.680250  0.837110  Uiso  0.025330
    O1  O2-  1.0000  0.796230  0.714130  0.837110  Uiso  0.025330
    O1  O2-  1.0000  0.225440  0.914820  0.837110  Uiso  0.025330
    O1  O2-  1.0000  0.493890  0.948700  0.837110  Uiso  0.025330
    O1  O2-  1.0000  0.762340  0.982580  0.837110  Uiso  0.025330
    O1  O2-  1.0000  0.058640  0.075580  0.870930  Uiso  0.025330
    O1  O2-  1.0000  0.327090  0.109470  0.870930  Uiso  0.025330
    O1  O2-  1.0000  0.595540  0.143350  0.870930  Uiso  0.025330
    O1  O2-  1.0000  0.863990  0.177230  0.870930  Uiso  0.025330
    O1  O2-  1.0000  0.024760  0.344030  0.870930  Uiso  0.025330
    O1  O2-  1.0000  0.293210  0.377920  0.870930  Uiso  0.025330
    O1  O2-  1.0000  0.561660  0.411800  0.870930  Uiso  0.025330
    O1  O2-  1.0000  0.830110  0.445680  0.870930  Uiso  0.025330
    O1  O2-  1.0000  0.259330  0.646370  0.870930  Uiso  0.025330
    O1  O2-  1.0000  0.527780  0.680250  0.870930  Uiso  0.025330
    O1  O2-  1.0000  0.796230  0.714130  0.870930  Uiso  0.025330
    O1  O2-  1.0000  0.225440  0.914820  0.870930  Uiso  0.025330
    O1  O2-  1.0000  0.493890  0.948700  0.870930  Uiso  0.025330
    O1  O2-  1.0000  0.762340  0.982580  0.870930  Uiso  0.025330
    O1  O2-  1.0000  0.058640  0.075580  0.904750  Uiso  0.025330
    O1  O2-  1.0000  0.327090  0.109470  0.904750  Uiso  0.025330
    O1  O2-  1.0000  0.595540  0.143350  0.904750  Uiso  0.025330
    O1  O2-  1.0000  0.863990  0.177230  0.904750  Uiso  0.025330
    O1  O2-  1.0000  0.024760  0.344030  0.904750  Uiso  0.025330
    O1  O2-  1.0000  0.293210  0.377920  0.904750  Uiso  0.025330
    O1  O2-  1.0000  0.561660  0.411800  0.904750  Uiso  0.025330
    O1  O2-  1.0000  0.830110  0.445680  0.904750  Uiso  0.025330
    O1  O2-  1.0000  0.259330  0.646370  0.904750  Uiso  0.025330
    O1  O2-  1.0000  0.527780  0.680250  0.904750  Uiso  0.025330
    O1  O2-  1.0000  0.796230  0.714130  0.904750  Uiso  0.025330
    O1  O2-  1.0000  0.225440  0.914820  0.904750  Uiso  0.025330
    O1  O2-  1.0000  0.493890  0.948700  0.904750  Uiso  0.025330
    O1  O2-  1.0000  0.762340  0.982580  0.904750  Uiso  0.025330
    O1  O2-  1.0000  0.058640  0.075580  0.938570  Uiso  0.025330
    O1  O2-  1.0000  0.327090  0.109470  0.938570  Uiso  0.025330
    O1  O2-  1.0000  0.595540  0.143350  0.938570  Uiso  0.025330
    O1  O2-  1.0000  0.863990  0.177230  0.938570  Uiso  0.025330
    O1  O2-  1.0000  0.024760  0.344030  0.938570  Uiso  0.025330
    O1  O2-  1.0000  0.293210  0.377920  0.938570  Uiso  0.025330
    O1  O2-  1.0000  0.561660  0.411800  0.938570  Uiso  0.025330
    O1  O2-  1.0000  0.830110  0.445680  0.938570  Uiso  0.025330
    O1  O2-  1.0000  0.259330  0.646370  0.938570  Uiso  0.025330
    O1  O2-  1.0000  0.527780  0.680250  0.938570  Uiso  0.025330
    O1  O2-  1.0000  0.796230  0.714130  0.938570  Uiso  0.025330
    O1  O2-  1.0000  0.225440  0.914820  0.938570  Uiso  0.025330
    O1  O2-  1.0000  0.493890  0.948700  0.938570  Uiso  0.025330
    O1  O2-  1.0000  0.762340  0.982580  0.938570  Uiso  0.025330
    O1  O2-  1.0000  0.058640  0.075580  0.972400  Uiso  0.025330
    O1  O2-  1.0000  0.327090  0.109470  0.972400  Uiso  0.025330
    O1  O2-  1.0000  0.595540  0.143350  0.972400  Uiso  0.025330
    O1  O2-  1.0000  0.863990  0.177230  0.972400  Uiso  0.025330
    O1  O2-  1.0000  0.024760  0.344030  0.972400  Uiso  0.025330
    O1  O2-  1.0000  0.293210  0.377920  0.972400  Uiso  0.025330
    O1  O2-  1.0000  0.561660  0.411800  0.972400  Uiso  0.025330
    O1  O2-  1.0000  0.830110  0.445680  0.972400  Uiso  0.025330
    O1  O2-  1.0000  0.259330  0.646370  0.972400  Uiso  0.025330
    O1  O2-  1.0000  0.527780  0.680250  0.972400  Uiso  0.025330
    O1  O2-  1.0000  0.796230  0.714130  0.972400  Uiso  0.025330
    O1  O2-  1.0000  0.225440  0.914820  0.972400  Uiso  0.025330
    O1  O2-  1.0000  0.493890  0.948700  0.972400  Uiso  0.025330
    O1  O2-  1.0000  0.762340  0.982580  0.972400  Uiso  0.025330
    O1  O2-  1.0000  0.612480  0.009120  0.025370  Uiso  0.025330
    O1  O2-  1.0000  0.880930  0.043010  0.025370  Uiso  0.025330
    O1  O2-  1.0000  0.041700  0.209810  0.025370  Uiso  0.025330
    O1  O2-  1.0000  0.310150  0.243690  0.025370  Uiso  0.025330
    O1  O2-  1.0000  0.578600  0.277570  0.025370  Uiso  0.025330
    O1  O2-  1.0000  0.847050  0.311460  0.025370  Uiso  0.025330
    O1  O2-  1.0000  0.007820  0.478260  0.025370  Uiso  0.025330
    O1  O2-  1.0000  0.276270  0.512140  0.025370  Uiso  0.025330
    O1  O2-  1.0000  0.544720  0.546020  0.025370  Uiso  0.025330
    O1  O2-  1.0000  0.813170  0.579910  0.025370  Uiso  0.025330
    O1  O2-  1.0000  0.242380  0.780590  0.025370  Uiso  0.025330
    O1  O2-  1.0000  0.510830  0.814470  0.025370  Uiso  0.025330
    O1  O2-  1.0000  0.779290  0.848360  0.025370  Uiso  0.025330
    O1  O2-  1.0000  0.612480  0.009120  0.059190  Uiso  0.025330
    O1  O2-  1.0000  0.880930  0.043010  0.059190  Uiso  0.025330
    O1  O2-  1.0000  0.041700  0.209810  0.059190  Uiso  0.025330
    O1  O2-  1.0000  0.310150  0.243690  0.059190  Uiso  0.025330
    O1  O2-  1.0000  0.578600  0.277570  0.059190  Uiso  0.025330
    O1  O2-  1.0000  0.847050  0.311460  0.059190  Uiso  0.025330
    O1  O2-  1.0000  0.007820  0.478260  0.059190  Uiso  0.025330
    O1  O2-  1.0000  0.276270  0.512140  0.059190  Uiso  0.025330
    O1  O2-  1.0000  0.544720  0.546020  0.059190  Uiso  0.025330
    O1  O2-  1.0000  0.813170  0.579910  0.059190  Uiso  0.025330
    O1  O2-  1.0000  0.242380  0.780590  0.059190  Uiso  0.025330
    O1  O2-  1.0000  0.510830  0.814470  0.059190  Uiso  0.025330
    O1  O2-  1.0000  0.779290  0.848360  0.059190  Uiso  0.025330
    O1  O2-  1.0000  0.612480  0.009120  0.093010  Uiso  0.025330
    O1  O2-  1.0000  0.880930  0.043010  0.093010  Uiso  0.025330
    O1  O2-  1.0000  0.041700  0.209810  0.093010  Uiso  0.025330
    O1  O2-  1.0000  0.310150  0.243690  0.093010  Uiso  0.025330
    O1  O2-  1.0000  0.578600  0.277570  0.093010  Uiso  0.025330
    O1  O2-  1.0000  0.847050  0.311460  0.093010  Uiso  0.025330
    O1  O2-  1.0000  0.007820  0.478260  0.093010  Uiso  0.025330
    O1  O2-  1.0000  0.276270  0.512140  0.093010  Uiso  0.025330
    O1  O2-  1.0000  0.544720  0.546020  0.093010  Uiso  0.025330
    O1  O2-  1.0000  0.813170  0.579910  0.093010  Uiso  0.025330
    O1  O2-  1.0000  0.242380  0.780590  0.093010  Uiso  0.025330
    O1  O2-  1.0000  0.510830  0.814470  0.093010  Uiso  0.025330
    O1  O2-  1.0000  0.779290  0.848360  0.093010  Uiso  0.025330
    O1  O2-  1.0000  0.612480  0.009120  0.126830  Uiso  0.025330
    O1  O2-  1.0000  0.880930  0.043010  0.126830  Uiso  0.025330
    O1  O2-  1.0000  0.041700  0.209810  0.126830  Uiso  0.025330
    O1  O2-  1.0000  0.310150  0.243690  0.126830  Uiso  0.025330
    O1  O2-  1.0000  0.578600  0.277570  0.126830  Uiso  0.025330
    O1  O2-  1.0000  0.847050  0.311460  0.126830  Uiso  0.025330
    O1  O2-  1.0000  0.007820  0.478260  0.126830  Uiso  0.025330
    O1  O2-  1.0000  0.276270  0.512140  0.126830  Uiso  0.025330
    O1  O2-  1.0000  0.544720  0.546020  0.126830  Uiso  0.025330
    O1  O2-  1.0000  0.813170  0.579910  0.126830  Uiso  0.025330
    O1  O2-  1.0000  0.242380  0.780590  0.126830  Uiso  0.025330
    O1  O2-  1.0000  0.510830  0.814470  0.126830  Uiso  0.025330
    O1  O2-  1.0000  0.779290  0.848360  0.126830  Uiso  0.025330
    O1  O2-  1.0000  0.612480  0.009120  0.160660  Uiso  0.025330
    O1  O2-  1.0000  0.880930  0.043010  0.160660  Uiso  0.025330
    O1  O2-  1.0000  0.041700  0.209810  0.160660  Uiso  0.025330
    O1  O2-  1.0000  0.310150  0.243690  0.160660  Uiso  0.025330
    O1  O2-  1.0000  0.578600  0.277570  0.160660  Uiso  0.025330
    O1  O2-  1.0000  0.847050  0.311460  0.160660  Uiso  0.025330
    O1  O2-  1.0000  0.007820  0.478260  0.160660  Uiso  0.025330
    O1  O2-  1.0000  0.276270  0.512140  0.160660  Uiso  0.025330
    O1  O2-  1.0000  0.544720  0.546020  0.160660  Uiso  0.025330
    O1  O2-  1.0000  0.813170  0.579910  0.160660  Uiso  0.025330
    O1  O2-  1.0000  0.242380  0.780590  0.160660  Uiso  0.025330
    O1  O2-  1.0000  0.510830  0.814470  0.160660  Uiso  0.025330
    O1  O2-  1.0000  0.779290  0.848360  0.160660  Uiso  0.025330
    O1  O2-  1.0000  0.612480  0.009120  0.194480  Uiso  0.025330
    O1  O2-  1.0000  0.880930  0.043010  0.194480  Uiso  0.025330
    O1  O2-  1.0000  0.041700  0.209810  0.194480  Uiso  0.025330
    O1  O2-  1.0000  0.310150  0.243690  0.194480  Uiso  0.025330
    O1  O2-  1.0000  0.578600  0.277570  0.194480  Uiso  0.025330
    O1  O2-  1.0000  0.847050  0.311460  0.194480  Uiso  0.025330
    O1  O2-  1.0000  0.007820  0.478260  0.194480  Uiso  0.025330
    O1  O2-  1.0000  0.276270  0.512140  0.194480  Uiso  0.025330
    O1  O2-  1.0000  0.544720  0.546020  0.194480  Uiso  0.025330
    O1  O2-  1.0000  0.813170  0.579910  0.194480  Uiso  0.025330
    O1  O2-  1.0000  0.242380  0.780590  0.194480  Uiso  0.025330
    O1  O2-  1.0000  0.510830  0.814470  0.194480  Uiso  0.025330
    O1  O2-  1.0000  0.779290  0.848360  0.194480  Uiso  0.025330
    O1  O2-  1.0000  0.612480  0.009120  0.228300  Uiso  0.025330
    O1  O2-  1.0000  0.880930  0.043010  0.228300  Uiso  0.025330
    O1  O2-  1.0000  0.041700  0.209810  0.228300  Uiso  0.025330
    O1  O2-  1.0000  0.310150  0.243690  0.228300  Uiso  0.025330
    O1  O2-  1.0000  0.578600  0.277570  0.228300  Uiso  0.025330
    O1  O2-  1.0000  0.847050  0.311460  0.228300  Uiso  0.025330
    O1  O2-  1.0000  0.007820  0.478260  0.228300  Uiso  0.025330
    O1  O2-  1.0000  0.276270  0.512140  0.228300  Uiso  0.025330
    O1  O2-  1.0000  0.544720  0.546020  0.228300  Uiso  0.025330
    O1  O2-  1.0000  0.813170  0.579910  0.228300  Uiso  0.025330
    O1  O2-  1.0000  0.242380  0.780590  0.228300  Uiso  0.025330
    O1  O2-  1.0000  0.510830  0.814470  0.228300  Uiso  0.025330
    O1  O2-  1.0000  0.779290  0.848360  0.228300  Uiso  0.025330
    O1  O2-  1.0000  0.612480  0.009120  0.262120  Uiso  0.025330
    O1  O2-  1.0000  0.880930  0.043010  0.262120  Uiso  0.025330
    O1  O2-  1.0000  0.041700  0.209810  0.262120  Uiso  0.025330
    O1  O2-  1.0000  0.310150  0.243690  0.262120  Uiso  0.025330
    O1  O2-  1.0000  0.578600  0.277570  0.262120  Uiso  0.025330
    O1  O2-  1.0000  0.847050  0.311460  0.262120  Uiso  0.025330
    O1  O2-  1.0000  0.007820  0.478260  0.262120  Uiso  0.025330
    O1  O2-  1.0000  0.276270  0.512140  0.262120  Uiso  0.025330
    O1  O2-  1.0000  0.544720  0.546020  0.262120  Uiso  0.025330
    O1  O2-  1.0000  0.813170  0.579910  0.262120  Uiso  0.025330
    O1  O2-  1.0000  0.242380  0.780590  0.262120  Uiso  0.025330
    O1  O2-  1.0000  0.510830  0.814470  0.262120  Uiso  0.025330
    O1  O2-  1.0000  0.779290  0.848360  0.262120  Uiso  0.025330
    O1  O2-  1.0000  0.612480  0.009120  0.295950  Uiso  0.025330
    O1  O2-  1.0000  0.880930  0.043010  0.295950  Uiso  0.025330
    O1  O2-  1.0000  0.041700  0.209810  0.295950  Uiso  0.025330
    O1  O2-  1.0000  0.310150  0.243690  0.295950  Uiso  0.025330
    O1  O2-  1.0000  0.578600  0.277570  0.295950  Uiso  0.025330
    O1  O2-  1.0000  0.847050  0.311460  0.295950  Uiso  0.025330
    O1  O2-  1.0000  0.007820  0.478260  0.295950  Uiso  0.025330
    O1  O2-  1.0000  0.276270  0.512140  0.295950  Uiso  0.025330
    O1  O2-  1.0000  0.544720  0.546020  0.295950  Uiso  0.025330
    O1  O2-  1.0000  0.813170  0.579910  0.295950  Uiso  0.025330
    O1  O2-  1.0000  0.242380  0.780590  0.295950  Uiso  0.025330
    O1  O2-  1.0000  0.510830  0.814470  0.295950  Uiso  0.025330
    O1  O2-  1.0000  0.779290  0.848360  0.295950  Uiso  0.025330
    O1  O2-  1.0000  0.612480  0.009120  0.329770  Uiso  0.025330
    O1  O2-  1.0000  0.880930  0.043010  0.329770  Uiso  0.025330
    O1  O2-  1.0000  0.041700  0.209810  0.329770  Uiso  0.025330
    O1  O2-  1.0000  0.310150  0.243690  0.329770  Uiso  0.025330
    O1  O2-  1.0000  0.578600  0.277570  0.329770  Uiso  0.025330
    O1  O2-  1.0000  0.847050  0.311460  0.329770  Uiso  0.025330
    O1  O2-  1.0000  0.007820  0.478260  0.329770  Uiso  0.025330
    O1  O2-  1.0000  0.276270  0.512140  0.329770  Uiso  0.025330
    O1  O2-  1.0000  0.544720  0.546020  0.329770  Uiso  0.025330
    O1  O2-  1.0000  0.813170  0.579910  0.329770  Uiso  0.025330
    O1  O2-  1.0000  0.242380  0.780590  0.329770  Uiso  0.025330
    O1  O2-  1.0000  0.510830  0.814470  0.329770  Uiso  0.025330
    O1  O2-  1.0000  0.779290  0.848360  0.329770  Uiso  0.025330
    O1  O2-  1.0000  0.612480  0.009120  0.363590  Uiso  0.025330
    O1  O2-  1.0000  0.880930  0.043010  0.363590  Uiso  0.025330
    O1  O2-  1.0000  0.041700  0.209810  0.363590  Uiso  0.025330
    O1  O2-  1.0000  0.310150  0.243690  0.363590  Uiso  0.025330
    O1  O2-  1.0000  0.578600  0.277570  0.363590  Uiso  0.025330
    O1  O2-  1.0000  0.847050  0.311460  0.363590  Uiso  0.025330
    O1  O2-  1.0000  0.007820  0.478260  0.363590  Uiso  0.025330
    O1  O2-  1.0000  0.276270  0.512140  0.363590  Uiso  0.025330
    O1  O2-  1.0000  0.544720  0.546020  0.363590  Uiso  0.025330
    O1  O2-  1.0000  0.813170  0.579910  0.363590  Uiso  0.025330
    O1  O2-  1.0000  0.242380  0.780590  0.363590  Uiso  0.025330
    O1  O2-  1.0000  0.510830  0.814470  0.363590  Uiso  0.025330
    O1  O2-  1.0000  0.779290  0.848360  0.363590  Uiso  0.025330
    O1  O2-  1.0000  0.612480  0.009120  0.397410  Uiso  0.025330
    O1  O2-  1.0000  0.880930  0.043010  0.397410  Uiso  0.025330
    O1  O2-  1.0000  0.041700  0.209810  0.397410  Uiso  0.025330
    O1  O2-  1.0000  0.310150  0.243690  0.397410  Uiso  0.025330
    O1  O2-  1.0000  0.578600  0.277570  0.397410  Uiso  0.025330
    O1  O2-  1.0000  0.847050  0.311460  0.397410  Uiso  0.025330
    O1  O2-  1.0000  0.007820  0.478260  0.397410  Uiso  0.025330
    O1  O2-  1.0000  0.276270  0.512140  0.397410  Uiso  0.025330
    O1  O2-  1.0000  0.544720  0.546020  0.397410  Uiso  0.025330
    O1  O2-  1.0000  0.813170  0.579910  0.397410  Uiso  0.025330
    O1  O2-  1.0000  0.242380  0.780590  0.397410  Uiso  0.025330
    O1  O2-  1.0000  0.510830  0.814470  0.397410  Uiso  0.025330
    O1  O2-  1.0000  0.779290  0.848360  0.397410  Uiso  0.025330
    O1  O2-  1.0000  0.612480  0.009120  0.431240  Uiso  0.025330
    O1  O2-  1.0000  0.880930  0.043010  0.431240  Uiso  0.025330
    O1  O2-  1.0000  0.041700  0.209810  0.431240  Uiso  0.025330
    O1  O2-  1.0000  0.310150  0.243690  0.431240  Uiso  0.025330
    O1  O2-  1.0000  0.578600  0.277570  0.431240  Uiso  0.025330
    O1  O2-  1.0000  0.847050  0.311460  0.431240  Uiso  0.025330
    O1  O2-  1.0000  0.007820  0.478260  0.431240  Uiso  0.025330
    O1  O2-  1.0000  0.276270  0.512140  0.431240  Uiso  0.025330
    O1  O2-  1.0000  0.544720  0.546020  0.431240  Uiso  0.025330
    O1  O2-  1.0000  0.813170  0.579910  0.431240  Uiso  0.025330
    O1  O2-  1.0000  0.242380  0.780590  0.431240  Uiso  0.025330
    O1  O2-  1.0000  0.510830  0.814470  0.431240  Uiso  0.025330
    O1  O2-  1.0000  0.779290  0.848360  0.431240  Uiso  0.025330
    O1  O2-  1.0000  0.612480  0.009120  0.465060  Uiso  0.025330
    O1  O2-  1.0000  0.880930  0.043010  0.465060  Uiso  0.025330
    O1  O2-  1.0000  0.041700  0.209810  0.465060  Uiso  0.025330
    O1  O2-  1.0000  0.310150  0.243690  0.465060  Uiso  0.025330
    O1  O2-  1.0000  0.578600  0.277570  0.465060  Uiso  0.025330
    O1  O2-  1.0000  0.847050  0.311460  0.465060  Uiso  0.025330
    O1  O2-  1.0000  0.007820  0.478260  0.465060  Uiso  0.025330
    O1  O2-  1.0000  0.276270  0.512140  0.465060  Uiso  0.025330
    O1  O2-  1.0000  0.544720  0.546020  0.465060  Uiso  0.025330
    O1  O2-  1.0000  0.813170  0.579910  0.465060  Uiso  0.025330
    O1  O2-  1.0000  0.242380  0.780590  0.465060  Uiso  0.025330
    O1  O2-  1.0000  0.510830  0.814470  0.465060  Uiso  0.025330
    O1  O2-  1.0000  0.779290  0.848360  0.465060  Uiso  0.025330
    O1  O2-  1.0000  0.612480  0.009120  0.498880  Uiso  0.025330
    O1  O2-  1.0000  0.880930  0.043010  0.498880  Uiso  0.025330
    O1  O2-  1.0000  0.041700  0.209810  0.498880  Uiso  0.025330
    O1  O2-  1.0000  0.310150  0.243690  0.498880  Uiso  0.025330
    O1  O2-  1.0000  0.578600  0.277570  0.498880  Uiso  0.025330
    O1  O2-  1.0000  0.847050  0.311460  0.498880  Uiso  0.025330
    O1  O2-  1.0000  0.007820  0.478260  0.498880  Uiso  0.025330
    O1  O2-  1.0000  0.276270  0.512140  0.498880  Uiso  0.025330
    O1  O2-  1.0000  0.544720  0.546020  0.498880  Uiso  0.025330
    O1  O2-  1.0000  0.813170  0.579910  0.498880  Uiso  0.025330
    O1  O2-  1.0000  0.242380  0.780590  0.498880  Uiso  0.025330
    O1  O2-  1.0000  0.510830  0.814470  0.498880  Uiso  0.025330
    O1  O2-  1.0000  0.779290  0.848360  0.498880  Uiso  0.025330
    O1  O2-  1.0000  0.612480  0.009120  0.532700  Uiso  0.025330
    O1  O2-  1.0000  0.880930  0.043010  0.532700  Uiso  0.025330
    O1  O2-  1.0000  0.041700  0.209810  0.532700  Uiso  0.025330
    O1  O2-  1.0000  0.310150  0.243690  0.532700  Uiso  0.025330
    O1  O2-  1.0000  0.578600  0.277570  0.532700  Uiso  0.025330
    O1  O2-  1.0000  0.847050  0.311460  0.532700  Uiso  0.025330
    O1  O2-  1.0000  0.007820  0.478260  0.532700  Uiso  0.025330
    O1  O2-  1.0000  0.276270  0.512140  0.532700  Uiso  0.025330
    O1  O2-  1.0000  0.544720  0.546020  0.532700  Uiso  0.025330
    O1  O2-  1.0000  0.813170  0.579910  0.532700  Uiso  0.025330
    O1  O2-  1.0000  0.242380  0.780590  0.532700  Uiso  0.025330
    O1  O2-  1.0000  0.510830  0.814470  0.532700  Uiso  0.025330
    O1  O2-  1.0000  0.779290  0.848360  0.532700  Uiso  0.025330
    O1  O2-  1.0000  0.612480  0.009120  0.566530  Uiso  0.025330
    O1  O2-  1.0000  0.880930  0.043010  0.566530  Uiso  0.025330
    O1  O2-  1.0000  0.041700  0.209810  0.566530  Uiso  0.025330
    O1  O2-  1.0000  0.310150  0.243690  0.566530  Uiso  0.025330
    O1  O2-  1.0000  0.578600  0.277570  0.566530  Uiso  0.025330
    O1  O2-  1.0000  0.847050  0.311460  0.566530  Uiso  0.025330
    O1  O2-  1.0000  0.007820  0.478260  0.566530  Uiso  0.025330
    O1  O2-  1.0000  0.276270  0.512140  0.566530  Uiso  0.025330
    O1  O2-  1.0000  0.544720  0.546020  0.566530  Uiso  0.025330
    O1  O2-  1.0000  0.813170  0.579910  0.566530  Uiso  0.025330
    O1  O2-  1.0000  0.242380  0.780590  0.566530  Uiso  0.025330
    O1  O2-  1.0000  0.510830  0.814470  0.566530  Uiso  0.025330
    O1  O2-  1.0000  0.779290  0.848360  0.566530  Uiso  0.025330
    O1  O2-  1.0000  0.612480  0.009120  0.600350  Uiso  0.025330
    O1  O2-  1.0000  0.880930  0.043010  0.600350  Uiso  0.025330
    O1  O2-  1.0000  0.041700  0.209810  0.600350  Uiso  0.025330
    O1  O2-  1.0000  0.310150  0.243690  0.600350  Uiso  0.025330
    O1  O2-  1.0000  0.578600  0.277570  0.600350  Uiso  0.025330
    O1  O2-  1.0000  0.847050  0.311460  0.600350  Uiso  0.025330
    O1  O2-  1.0000  0.007820  0.478260  0.600350  Uiso  0.025330
    O1  O2-  1.0000  0.276270  0.512140  0.600350  Uiso  0.025330
    O1  O2-  1.0000  0.544720  0.546020  0.600350  Uiso  0.025330
    O1  O2-  1.0000  0.813170  0.579910  0.600350  Uiso  0.025330
    O1  O2-  1.0000  0.242380  0.780590  0.600350  Uiso  0.025330
    O1  O2-  1.0000  0.510830  0.814470  0.600350  Uiso  0.025330
    O1  O2-  1.0000  0.779290  0.848360  0.600350  Uiso  0.025330
    O1  O2-  1.0000  0.612480  0.009120  0.634170  Uiso  0.025330
    O1  O2-  1.0000  0.880930  0.043010  0.634170  Uiso  0.025330
    O1  O2-  1.0000  0.041700  0.209810  0.634170  Uiso  0.025330
    O1  O2-  1.0000  0.310150  0.243690  0.634170  Uiso  0.025330
    O1  O2-  1.0000  0.578600  0.277570  0.634170  Uiso  0.025330
    O1  O2-  1.0000  0.847050  0.311460  0.634170  Uiso  0.025330
    O1  O2-  1.0000  0.007820  0.478260  0.634170  Uiso  0.025330
    O1  O2-  1.0000  0.276270  0.512140  0.634170  Uiso  0.025330
    O1  O2-  1.0000  0.544720  0.546020  0.634170  Uiso  0.025330
    O1  O2-  1.0000  0.813170  0.579910  0.634170  Uiso  0.025330
    O1  O2-  1.0000  0.242380  0.780590  0.634170  Uiso  0.025330
    O1  O2-  1.0000  0.510830  0.814470  0.634170  Uiso  0.025330
    O1  O2-  1.0000  0.779290  0.848360  0.634170  Uiso  0.025330
    O1  O2-  1.0000  0.612480  0.009120  0.667990  Uiso  0.025330
    O1  O2-  1.0000  0.880930  0.043010  0.667990  Uiso  0.025330
    O1  O2-  1.0000  0.041700  0.209810  0.667990  Uiso  0.025330
    O1  O2-  1.0000  0.310150  0.243690  0.667990  Uiso  0.025330
    O1  O2-  1.0000  0.578600  0.277570  0.667990  Uiso  0.025330
    O1  O2-  1.0000  0.847050  0.311460  0.667990  Uiso  0.025330
    O1  O2-  1.0000  0.007820  0.478260  0.667990  Uiso  0.025330
    O1  O2-  1.0000  0.276270  0.512140  0.667990  Uiso  0.025330
    O1  O2-  1.0000  0.544720  0.546020  0.667990  Uiso  0.025330
    O1  O2-  1.0000  0.813170  0.579910  0.667990  Uiso  0.025330
    O1  O2-  1.0000  0.242380  0.780590  0.667990  Uiso  0.025330
    O1  O2-  1.0000  0.510830  0.814470  0.667990  Uiso  0.025330
    O1  O2-  1.0000  0.779290  0.848360  0.667990  Uiso  0.025330
    O1  O2-  1.0000  0.612480  0.009120  0.701820  Uiso  0.025330
    O1  O2-  1.0000  0.880930  0.043010  0.701820  Uiso  0.025330
    O1  O2-  1.0000  0.041700  0.209810  0.701820  Uiso  0.025330
    O1  O2-  1.0000  0.310150  0.243690  0.701820  Uiso  0.025330
    O1  O2-  1.0000  0.578600  0.277570  0.701820  Uiso  0.025330
    O1  O2-  1.0000  0.847050  0.311460  0.701820  Uiso  0.025330
    O1  O2-  1.0000  0.007820  0.478260  0.701820  Uiso  0.025330
    O1  O2-  1.0000  0.276270  0.512140  0.701820  Uiso  0.025330
    O1  O2-  1.0000  0.544720  0.546020  0.701820  Uiso  0.025330
    O1  O2-  1.0000  0.813170  0.579910  0.701820  Uiso  0.025330
    O1  O2-  1.0000  0.242380  0.780590  0.701820  Uiso  0.025330
    O1  O2-  1.0000  0.510830  0.814470  0.701820  Uiso  0.025330
    O1  O2-  1.0000  0.779290  0.848360  0.701820  Uiso  0.025330
    O1  O2-  1.0000  0.612480  0.009120  0.735640  Uiso  0.025330
    O1  O2-  1.0000  0.880930  0.043010  0.735640  Uiso  0.025330
    O1  O2-  1.0000  0.041700  0.209810  0.735640  Uiso  0.025330
    O1  O2-  1.0000  0.310150  0.243690  0.735640  Uiso  0.025330
    O1  O2-  1.0000  0.578600  0.277570  0.735640  Uiso  0.025330
    O1  O2-  1.0000  0.847050  0.311460  0.735640  Uiso  0.025330
    O1  O2-  1.0000  0.007820  0.478260  0.735640  Uiso  0.025330
    O1  O2-  1.0000  0.276270  0.512140  0.735640  Uiso  0.025330
    O1  O2-  1.0000  0.544720  0.546020  0.735640  Uiso  0.025330
    O1  O2-  1.0000  0.813170  0.579910  0.735640  Uiso  0.025330
    O1  O2-  1.0000  0.242380  0.780590  0.735640  Uiso  0.025330
    O1  O2-  1.0000  0.510830  0.814470  0.735640  Uiso  0.025330
    O1  O2-  1.0000  0.779290  0.848360  0.735640  Uiso  0.025330
    O1  O2-  1.0000  0.612480  0.009120  0.769460  Uiso  0.025330
    O1  O2-  1.0000  0.880930  0.043010  0.769460  Uiso  0.025330
    O1  O2-  1.0000  0.041700  0.209810  0.769460  Uiso  0.025330
    O1  O2-  1.0000  0.310150  0.243690  0.769460  Uiso  0.025330
    O1  O2-  1.0000  0.578600  0.277570  0.769460  Uiso  0.025330
    O1  O2-  1.0000  0.847050  0.311460  0.769460  Uiso  0.025330
    O1  O2-  1.0000  0.007820  0.478260  0.769460  Uiso  0.025330
    O1  O2-  1.0000  0.276270  0.512140  0.769460  Uiso  0.025330
    O1  O2-  1.0000  0.544720  0.546020  0.769460  Uiso  0.025330
    O1  O2-  1.0000  0.813170  0.579910  0.769460  Uiso  0.025330
    O1  O2-  1.0000  0.242380  0.780590  0.769460  Uiso  0.025330
    O1  O2-  1.0000  0.510830  0.814470  0.769460  Uiso  0.025330
    O1  O2-  1.0000  0.779290  0.848360  0.769460  Uiso  0.025330
    O1  O2-  1.0000  0.612480  0.009120  0.803280  Uiso  0.025330
    O1  O2-  1.0000  0.880930  0.043010  0.803280  Uiso  0.025330
    O1  O2-  1.0000  0.041700  0.209810  0.803280  Uiso  0.025330
    O1  O2-  1.0000  0.310150  0.243690  0.803280  Uiso  0.025330
    O1  O2-  1.0000  0.578600  0.277570  0.803280  Uiso  0.025330
    O1  O2-  1.0000  0.847050  0.311460  0.803280  Uiso  0.025330
    O1  O2-  1.0000  0.007820  0.478260  0.803280  Uiso  0.025330
    O1  O2-  1.0000  0.276270  0.512140  0.803280  Uiso  0.025330
    O1  O2-  1.0000  0.544720  0.546020  0.803280  Uiso  0.025330
    O1  O2-  1.0000  0.813170  0.579910  0.803280  Uiso  0.025330
    O1  O2-  1.0000  0.242380  0.780590  0.803280  Uiso  0.025330
    O1  O2-  1.0000  0.510830  0.814470  0.803280  Uiso  0.025330
    O1  O2-  1.0000  0.779290  0.848360  0.803280  Uiso  0.025330
    O1  O2-  1.0000  0.612480  0.009120  0.837110  Uiso  0.025330
    O1  O2-  1.0000  0.880930  0.043010  0.837110  Uiso  0.025330
    O1  O2-  1.0000  0.041700  0.209810  0.837110  Uiso  0.025330
    O1  O2-  1.0000  0.310150  0.243690  0.837110  Uiso  0.025330
    O1  O2-  1.0000  0.578600  0.277570  0.837110  Uiso  0.025330
    O1  O2-  1.0000  0.847050  0.311460  0.837110  Uiso  0.025330
    O1  O2-  1.0000  0.007820  0.478260  0.837110  Uiso  0.025330
    O1  O2-  1.0000  0.276270  0.512140  0.837110  Uiso  0.025330
    O1  O2-  1.0000  0.544720  0.546020  0.837110  Uiso  0.025330
    O1  O2-  1.0000  0.813170  0.579910  0.837110  Uiso  0.025330
    O1  O2-  1.0000  0.242380  0.780590  0.837110  Uiso  0.025330
    O1  O2-  1.0000  0.510830  0.814470  0.837110  Uiso  0.025330
    O1  O2-  1.0000  0.779290  0.848360  0.837110  Uiso  0.025330
    O1  O2-  1.0000  0.612480  0.009120  0.870930  Uiso  0.025330
    O1  O2-  1.0000  0.880930  0.043010  0.870930  Uiso  0.025330
    O1  O2-  1.0000  0.041700  0.209810  0.870930  Uiso  0.025330
    O1  O2-  1.0000  0.310150  0.243690  0.870930  Uiso  0.025330
    O1  O2-  1.0000  0.578600  0.277570  0.870930  Uiso  0.025330
    O1  O2-  1.0000  0.847050  0.311460  0.870930  Uiso  0.025330
    O1  O2-  1.0000  0.007820  0.478260  0.870930  Uiso  0.025330
    O1  O2-  1.0000  0.276270  0.512140  0.870930  Uiso  0.025330
    O1  O2-  1.0000  0.544720  0.546020  0.870930  Uiso  0.025330
    O1  O2-  1.0000  0.813170  0.579910  0.870930  Uiso  0.025330
    O1  O2-  1.0000  0.242380  0.780590  0.870930  Uiso  0.025330
    O1  O2-  1.0000  0.510830  0.814470  0.870930  Uiso  0.025330
    O1  O2-  1.0000  0.779290  0.848360  0.870930  Uiso  0.025330
    O1  O2-  1.0000  0.612480  0.009120  0.904750  Uiso  0.025330
    O1  O2-  1.0000  0.880930  0.043010  0.904750  Uiso  0.025330
    O1  O2-  1.0000  0.041700  0.209810  0.904750  Uiso  0.025330
    O1  O2-  1.0000  0.310150  0.243690  0.904750  Uiso  0.025330
    O1  O2-  1.0000  0.578600  0.277570  0.904750  Uiso  0.025330
    O1  O2-  1.0000  0.847050  0.311460  0.904750  Uiso  0.025330
    O1  O2-  1.0000  0.007820  0.478260  0.904750  Uiso  0.025330
    O1  O2-  1.0000  0.276270  0.512140  0.904750  Uiso  0.025330
    O1  O2-  1.0000  0.544720  0.546020  0.904750  Uiso  0.025330
    O1  O2-  1.0000  0.813170  0.579910  0.904750  Uiso  0.025330
    O1  O2-  1.0000  0.242380  0.780590  0.904750  Uiso  0.025330
    O1  O2-  1.0000  0.510830  0.814470  0.904750  Uiso  0.025330
    O1  O2-  1.0000  0.779290  0.848360  0.904750  Uiso  0.025330
    O1  O2-  1.0000  0.612480  0.009120  0.938570  Uiso  0.025330
    O1  O2-  1.0000  0.880930  0.043010  0.938570  Uiso  0.025330
    O1  O2-  1.0000  0.041700  0.209810  0.938570  Uiso  0.025330
    O1  O2-  1.0000  0.310150  0.243690  0.938570  Uiso  0.025330
    O1  O2-  1.0000  0.578600  0.277570  0.938570  Uiso  0.025330
    O1  O2-  1.0000  0.847050  0.311460  0.938570  Uiso  0.025330
    O1  O2-  1.0000  0.007820  0.478260  0.938570  Uiso  0.025330
    O1  O2-  1.0000  0.276270  0.512140  0.938570  Uiso  0.025330
    O1  O2-  1.0000  0.544720  0.546020  0.938570  Uiso  0.025330
    O1  O2-  1.0000  0.813170  0.579910  0.938570  Uiso  0.025330
    O1  O2-  1.0000  0.242380  0.780590  0.938570  Uiso  0.025330
    O1  O2-  1.0000  0.510830  0.814470  0.938570  Uiso  0.025330
    O1  O2-  1.0000  0.779290  0.848360  0.938570  Uiso  0.025330
    O1  O2-  1.0000  0.612480  0.009120  0.972400  Uiso  0.025330
    O1  O2-  1.0000  0.880930  0.043010  0.972400  Uiso  0.025330
    O1  O2-  1.0000  0.041700  0.209810  0.972400  Uiso  0.025330
    O1  O2-  1.0000  0.310150  0.243690  0.972400  Uiso  0.025330
    O1  O2-  1.0000  0.578600  0.277570  0.972400  Uiso  0.025330
    O1  O2-  1.0000  0.847050  0.311460  0.972400  Uiso  0.025330
    O1  O2-  1.0000  0.007820  0.478260  0.972400  Uiso  0.025330
    O1  O2-  1.0000  0.276270  0.512140  0.972400  Uiso  0.025330
    O1  O2-  1.0000  0.544720  0.546020  0.972400  Uiso  0.025330
    O1  O2-  1.0000  0.813170  0.579910  0.972400  Uiso  0.025330
    O1  O2-  1.0000  0.242380  0.780590  0.972400  Uiso  0.025330
    O1  O2-  1.0000  0.510830  0.814470  0.972400  Uiso  0.025330
    O1  O2-  1.0000  0.779290  0.848360  0.972400  Uiso  0.025330
    O1  O2-  1.0000  0.192870  0.092520  0.025370  Uiso  0.025330
    O1  O2-  1.0000  0.461320  0.126410  0.025370  Uiso  0.025330
    O1  O2-  1.0000  0.729770  0.160290  0.025370  Uiso  0.025330
    O1  O2-  1.0000  0.998220  0.194170  0.025370  Uiso  0.025330
    O1  O2-  1.0000  0.158980  0.360970  0.025370  Uiso  0.025330
    O1  O2-  1.0000  0.427430  0.394860  0.025370  Uiso  0.025330
    O1  O2-  1.0000  0.695880  0.428740  0.025370  Uiso  0.025330
    O1  O2-  1.0000  0.964330  0.462620  0.025370  Uiso  0.025330
    O1  O2-  1.0000  0.125100  0.629430  0.025370  Uiso  0.025330
    O1  O2-  1.0000  0.393550  0.663310  0.025370  Uiso  0.025330
    O1  O2-  1.0000  0.662000  0.697190  0.025370  Uiso  0.025330
    O1  O2-  1.0000  0.930450  0.731070  0.025370  Uiso  0.025330
    O1  O2-  1.0000  0.091220  0.897880  0.025370  Uiso  0.025330
    O1  O2-  1.0000  0.359670  0.931760  0.025370  Uiso  0.025330
    O1  O2-  1.0000  0.628120  0.965640  0.025370  Uiso  0.025330
    O1  O2-  1.0000  0.896570  0.999520  0.025370  Uiso  0.025330
    O1  O2-  1.0000  0.192870  0.092520  0.059190  Uiso  0.025330
    O1  O2-  1.0000  0.461320  0.126410  0.059190  Uiso  0.025330
    O1  O2-  1.0000  0.729770  0.160290  0.059190  Uiso  0.025330
    O1  O2-  1.0000  0.998220  0.194170  0.059190  Uiso  0.025330
    O1  O2-  1.0000  0.158980  0.360970  0.059190  Uiso  0.025330
    O1  O2-  1.0000  0.427430  0.394860  0.059190  Uiso  0.025330
    O1  O2-  1.0000  0.695880  0.428740  0.059190  Uiso  0.025330
    O1  O2-  1.0000  0.964330  0.462620  0.059190  Uiso  0.025330
    O1  O2-  1.0000  0.125100  0.629430  0.059190  Uiso  0.025330
    O1  O2-  1.0000  0.393550  0.663310  0.059190  Uiso  0.025330
    O1  O2-  1.0000  0.662000  0.697190  0.059190  Uiso  0.025330
    O1  O2-  1.0000  0.930450  0.731070  0.059190  Uiso  0.025330
    O1  O2-  1.0000  0.091220  0.897880  0.059190  Uiso  0.025330
    O1  O2-  1.0000  0.359670  0.931760  0.059190  Uiso  0.025330
    O1  O2-  1.0000  0.628120  0.965640  0.059190  Uiso  0.025330
    O1  O2-  1.0000  0.896570  0.999520  0.059190  Uiso  0.025330
    O1  O2-  1.0000  0.192870  0.092520  0.093010  Uiso  0.025330
    O1  O2-  1.0000  0.461320  0.126410  0.093010  Uiso  0.025330
    O1  O2-  1.0000  0.729770  0.160290  0.093010  Uiso  0.025330
    O1  O2-  1.0000  0.998220  0.194170  0.093010  Uiso  0.025330
    O1  O2-  1.0000  0.158980  0.360970  0.093010  Uiso  0.025330
    O1  O2-  1.0000  0.427430  0.394860  0.093010  Uiso  0.025330
    O1  O2-  1.0000  0.695880  0.428740  0.093010  Uiso  0.025330
    O1  O2-  1.0000  0.964330  0.462620  0.093010  Uiso  0.025330
    O1  O2-  1.0000  0.125100  0.629430  0.093010  Uiso  0.025330
    O1  O2-  1.0000  0.393550  0.663310  0.093010  Uiso  0.025330
    O1  O2-  1.0000  0.662000  0.697190  0.093010  Uiso  0.025330
    O1  O2-  1.0000  0.930450  0.731070  0.093010  Uiso  0.025330
    O1  O2-  1.0000  0.091220  0.897880  0.093010  Uiso  0.025330
    O1  O2-  1.0000  0.359670  0.931760  0.093010  Uiso  0.025330
    O1  O2-  1.0000  0.628120  0.965640  0.093010  Uiso  0.025330
    O1  O2-  1.0000  0.896570  0.999520  0.093010  Uiso  0.025330
    O1  O2-  1.0000  0.192870  0.092520  0.126830  Uiso  0.025330
    O1  O2-  1.0000  0.461320  0.126410  0.126830  Uiso  0.025330
    O1  O2-  1.0000  0.729770  0.160290  0.126830  Uiso  0.025330
    O1  O2-  1.0000  0.998220  0.194170  0.126830  Uiso  0.025330
    O1  O2-  1.0000  0.158980  0.360970  0.126830  Uiso  0.025330
    O1  O2-  1.0000  0.427430  0.394860  0.126830  Uiso  0.025330
    O1  O2-  1.0000  0.695880  0.428740  0.126830  Uiso  0.025330
    O1  O2-  1.0000  0.964330  0.462620  0.126830  Uiso  0.025330
    O1  O2-  1.0000  0.125100  0.629430  0.126830  Uiso  0.025330
    O1  O2-  1.0000  0.393550  0.663310  0.126830  Uiso  0.025330
    O1  O2-  1.0000  0.662000  0.697190  0.126830  Uiso  0.025330
    O1  O2-  1.0000  0.930450  0.731070  0.126830  Uiso  0.025330
    O1  O2-  1.0000  0.091220  0.897880  0.126830  Uiso  0.025330
    O1  O2-  1.0000  0.359670  0.931760  0.126830  Uiso  0.025330
    O1  O2-  1.0000  0.628120  0.965640  0.126830  Uiso  0.025330
    O1  O2-  1.0000  0.896570  0.999520  0.126830  Uiso  0.025330
    O1  O2-  1.0000  0.192870  0.092520  0.160660  Uiso  0.025330
    O1  O2-  1.0000  0.461320  0.126410  0.160660  Uiso  0.025330
    O1  O2-  1.0000  0.729770  0.160290  0.160660  Uiso  0.025330
    O1  O2-  1.0000  0.998220  0.194170  0.160660  Uiso  0.025330
    O1  O2-  1.0000  0.158980  0.360970  0.160660  Uiso  0.025330
    O1  O2-  1.0000  0.427430  0.394860  0.160660  Uiso  0.025330
    O1  O2-  1.0000  0.695880  0.428740  0.160660  Uiso  0.025330
    O1  O2-  1.0000  0.964330  0.462620  0.160660  Uiso  0.025330
    O1  O2-  1.0000  0.125100  0.629430  0.160660  Uiso  0.025330
    O1  O2-  1.0000  0.393550  0.663310  0.160660  Uiso  0.025330
    O1  O2-  1.0000  0.662000  0.697190  0.160660  Uiso  0.025330
    O1  O2-  1.0000  0.930450  0.731070  0.160660  Uiso  0.025330
    O1  O2-  1.0000  0.091220  0.897880  0.160660  Uiso  0.025330
    O1  O2-  1.0000  0.359670  0.931760  0.160660  Uiso  0.025330
    O1  O2-  1.0000  0.628120  0.965640  0.160660  Uiso  0.025330
    O1  O2-  1.0000  0.896570  0.999520  0.160660  Uiso  0.025330
    O1  O2-  1.0000  0.192870  0.092520  0.194480  Uiso  0.025330
    O1  O2-  1.0000  0.461320  0.126410  0.194480  Uiso  0.025330
    O1  O2-  1.0000  0.729770  0.160290  0.194480  Uiso  0.025330
    O1  O2-  1.0000  0.998220  0.194170  0.194480  Uiso  0.025330
    O1  O2-  1.0000  0.158980  0.360970  0.194480  Uiso  0.025330
    O1  O2-  1.0000  0.427430  0.394860  0.194480  Uiso  0.025330
    O1  O2-  1.0000  0.695880  0.428740  0.194480  Uiso  0.025330
    O1  O2-  1.0000  0.964330  0.462620  0.194480  Uiso  0.025330
    O1  O2-  1.0000  0.125100  0.629430  0.194480  Uiso  0.025330
    O1  O2-  1.0000  0.393550  0.663310  0.194480  Uiso  0.025330
    O1  O2-  1.0000  0.662000  0.697190  0.194480  Uiso  0.025330
    O1  O2-  1.0000  0.930450  0.731070  0.194480  Uiso  0.025330
    O1  O2-  1.0000  0.091220  0.897880  0.194480  Uiso  0.025330
    O1  O2-  1.0000  0.359670  0.931760  0.194480  Uiso  0.025330
    O1  O2-  1.0000  0.628120  0.965640  0.194480  Uiso  0.025330
    O1  O2-  1.0000  0.896570  0.999520  0.194480  Uiso  0.025330
    O1  O2-  1.0000  0.192870  0.092520  0.228300  Uiso  0.025330
    O1  O2-  1.0000  0.461320  0.126410  0.228300  Uiso  0.025330
    O1  O2-  1.0000  0.729770  0.160290  0.228300  Uiso  0.025330
    O1  O2-  1.0000  0.998220  0.194170  0.228300  Uiso  0.025330
    O1  O2-  1.0000  0.158980  0.360970  0.228300  Uiso  0.025330
    O1  O2-  1.0000  0.427430  0.394860  0.228300  Uiso  0.025330
    O1  O2-  1.0000  0.695880  0.428740  0.228300  Uiso  0.025330
    O1  O2-  1.0000  0.964330  0.462620  0.228300  Uiso  0.025330
    O1  O2-  1.0000  0.125100  0.629430  0.228300  Uiso  0.025330
    O1  O2-  1.0000  0.393550  0.663310  0.228300  Uiso  0.025330
    O1  O2-  1.0000  0.662000  0.697190  0.228300  Uiso  0.025330
    O1  O2-  1.0000  0.930450  0.731070  0.228300  Uiso  0.025330
    O1  O2-  1.0000  0.091220  0.897880  0.228300  Uiso  0.025330
    O1  O2-  1.0000  0.359670  0.931760  0.228300  Uiso  0.025330
    O1  O2-  1.0000  0.628120  0.965640  0.228300  Uiso  0.025330
    O1  O2-  1.0000  0.896570  0.999520  0.228300  Uiso  0.025330
    O1  O2-  1.0000  0.192870  0.092520  0.262120  Uiso  0.025330
    O1  O2-  1.0000  0.461320  0.126410  0.262120  Uiso  0.025330
    O1  O2-  1.0000  0.729770  0.160290  0.262120  Uiso  0.025330
    O1  O2-  1.0000  0.998220  0.194170  0.262120  Uiso  0.025330
    O1  O2-  1.0000  0.158980  0.360970  0.262120  Uiso  0.025330
    O1  O2-  1.0000  0.427430  0.394860  0.262120  Uiso  0.025330
    O1  O2-  1.0000  0.695880  0.428740  0.262120  Uiso  0.025330
    O1  O2-  1.0000  0.964330  0.462620  0.262120  Uiso  0.025330
    O1  O2-  1.0000  0.125100  0.629430  0.262120  Uiso  0.025330
    O1  O2-  1.0000  0.393550  0.663310  0.262120  Uiso  0.025330
    O1  O2-  1.0000  0.662000  0.697190  0.262120  Uiso  0.025330
    O1  O2-  1.0000  0.930450  0.731070  0.262120  Uiso  0.025330
    O1  O2-  1.0000  0.091220  0.897880  0.262120  Uiso  0.025330
    O1  O2-  1.0000  0.359670  0.931760  0.262120  Uiso  0.025330
    O1  O2-  1.0000  0.628120  0.965640  0.262120  Uiso  0.025330
    O1  O2-  1.0000  0.896570  0.999520  0.262120  Uiso  0.025330
    O1  O2-  1.0000  0.192870  0.092520  0.295950  Uiso  0.025330
    O1  O2-  1.0000  0.461320  0.126410  0.295950  Uiso  0.025330
    O1  O2-  1.0000  0.729770  0.160290  0.295950  Uiso  0.025330
    O1  O2-  1.0000  0.998220  0.194170  0.295950  Uiso  0.025330
    O1  O2-  1.0000  0.158980  0.360970  0.295950  Uiso  0.025330
    O1  O2-  1.0000  0.427430  0.394860  0.295950  Uiso  0.025330
    O1  O2-  1.0000  0.695880  0.428740  0.295950  Uiso  0.025330
    O1  O2-  1.0000  0.964330  0.462620  0.295950  Uiso  0.025330
    O1  O2-  1.0000  0.125100  0.629430  0.295950  Uiso  0.025330
    O1  O2-  1.0000  0.393550  0.663310  0.295950  Uiso  0.025330
    O1  O2-  1.0000  0.662000  0.697190  0.295950  Uiso  0.025330
    O1  O2-  1.0000  0.930450  0.731070  0.295950  Uiso  0.025330
    O1  O2-  1.0000  0.091220  0.897880  0.295950  Uiso  0.025330
    O1  O2-  1.0000  0.359670  0.931760  0.295950  Uiso  0.025330
    O1  O2-  1.0000  0.628120  0.965640  0.295950  Uiso  0.025330
    O1  O2-  1.0000  0.896570  0.999520  0.295950  Uiso  0.025330
    O1  O2-  1.0000  0.192870  0.092520  0.329770  Uiso  0.025330
    O1  O2-  1.0000  0.461320  0.126410  0.329770  Uiso  0.025330
    O1  O2-  1.0000  0.729770  0.160290  0.329770  Uiso  0.025330
    O1  O2-  1.0000  0.998220  0.194170  0.329770  Uiso  0.025330
    O1  O2-  1.0000  0.158980  0.360970  0.329770  Uiso  0.025330
    O1  O2-  1.0000  0.427430  0.394860  0.329770  Uiso  0.025330
    O1  O2-  1.0000  0.695880  0.428740  0.329770  Uiso  0.025330
    O1  O2-  1.0000  0.964330  0.462620  0.329770  Uiso  0.025330
    O1  O2-  1.0000  0.125100  0.629430  0.329770  Uiso  0.025330
    O1  O2-  1.0000  0.393550  0.663310  0.329770  Uiso  0.025330
    O1  O2-  1.0000  0.662000  0.697190  0.329770  Uiso  0.025330
    O1  O2-  1.0000  0.930450  0.731070  0.329770  Uiso  0.025330
    O1  O2-  1.0000  0.091220  0.897880  0.329770  Uiso  0.025330
    O1  O2-  1.0000  0.359670  0.931760  0.329770  Uiso  0.025330
    O1  O2-  1.0000  0.628120  0.965640  0.329770  Uiso  0.025330
    O1  O2-  1.0000  0.896570  0.999520  0.329770  Uiso  0.025330
    O1  O2-  1.0000  0.192870  0.092520  0.363590  Uiso  0.025330
    O1  O2-  1.0000  0.461320  0.126410  0.363590  Uiso  0.025330
    O1  O2-  1.0000  0.729770  0.160290  0.363590  Uiso  0.025330
    O1  O2-  1.0000  0.998220  0.194170  0.363590  Uiso  0.025330
    O1  O2-  1.0000  0.158980  0.360970  0.363590  Uiso  0.025330
    O1  O2-  1.0000  0.427430  0.394860  0.363590  Uiso  0.025330
    O1  O2-  1.0000  0.695880  0.428740  0.363590  Uiso  0.025330
    O1  O2-  1.0000  0.964330  0.462620  0.363590  Uiso  0.025330
    O1  O2-  1.0000  0.125100  0.629430  0.363590  Uiso  0.025330
    O1  O2-  1.0000  0.393550  0.663310  0.363590  Uiso  0.025330
    O1  O2-  1.0000  0.662000  0.697190  0.363590  Uiso  0.025330
    O1  O2-  1.0000  0.930450  0.731070  0.363590  Uiso  0.025330
    O1  O2-  1.0000  0.091220  0.897880  0.363590  Uiso  0.025330
    O1  O2-  1.0000  0.359670  0.931760  0.363590  Uiso  0.025330
    O1  O2-  1.0000  0.628120  0.965640  0.363590  Uiso  0.025330
    O1  O2-  1.0000  0.896570  0.999520  0.363590  Uiso  0.025330
    O1  O2-  1.0000  0.192870  0.092520  0.397410  Uiso  0.025330
    O1  O2-  1.0000  0.461320  0.126410  0.397410  Uiso  0.025330
    O1  O2-  1.0000  0.729770  0.160290  0.397410  Uiso  0.025330
    O1  O2-  1.0000  0.998220  0.194170  0.397410  Uiso  0.025330
    O1  O2-  1.0000  0.158980  0.360970  0.397410  Uiso  0.025330
    O1  O2-  1.0000  0.427430  0.394860  0.397410  Uiso  0.025330
    O1  O2-  1.0000  0.695880  0.428740  0.397410  Uiso  0.025330
    O1  O2-  1.0000  0.964330  0.462620  0.397410  Uiso  0.025330
    O1  O2-  1.0000  0.125100  0.629430  0.397410  Uiso  0.025330
    O1  O2-  1.0000  0.393550  0.663310  0.397410  Uiso  0.025330
    O1  O2-  1.0000  0.662000  0.697190  0.397410  Uiso  0.025330
    O1  O2-  1.0000  0.930450  0.731070  0.397410  Uiso  0.025330
    O1  O2-  1.0000  0.091220  0.897880  0.397410  Uiso  0.025330
    O1  O2-  1.0000  0.359670  0.931760  0.397410  Uiso  0.025330
    O1  O2-  1.0000  0.628120  0.965640  0.397410  Uiso  0.025330
    O1  O2-  1.0000  0.896570  0.999520  0.397410  Uiso  0.025330
    O1  O2-  1.0000  0.192870  0.092520  0.431240  Uiso  0.025330
    O1  O2-  1.0000  0.461320  0.126410  0.431240  Uiso  0.025330
    O1  O2-  1.0000  0.729770  0.160290  0.431240  Uiso  0.025330
    O1  O2-  1.0000  0.998220  0.194170  0.431240  Uiso  0.025330
    O1  O2-  1.0000  0.158980  0.360970  0.431240  Uiso  0.025330
    O1  O2-  1.0000  0.427430  0.394860  0.431240  Uiso  0.025330
    O1  O2-  1.0000  0.695880  0.428740  0.431240  Uiso  0.025330
    O1  O2-  1.0000  0.964330  0.462620  0.431240  Uiso  0.025330
    O1  O2-  1.0000  0.125100  0.629430  0.431240  Uiso  0.025330
    O1  O2-  1.0000  0.393550  0.663310  0.431240  Uiso  0.025330
    O1  O2-  1.0000  0.662000  0.697190  0.431240  Uiso  0.025330
    O1  O2-  1.0000  0.930450  0.731070  0.431240  Uiso  0.025330
    O1  O2-  1.0000  0.091220  0.897880  0.431240  Uiso  0.025330
    O1  O2-  1.0000  0.359670  0.931760  0.431240  Uiso  0.025330
    O1  O2-  1.0000  0.628120  0.965640  0.431240  Uiso  0.025330
    O1  O2-  1.0000  0.896570  0.999520  0.431240  Uiso  0.025330
    O1  O2-  1.0000  0.192870  0.092520  0.465060  Uiso  0.025330
    O1  O2-  1.0000  0.461320  0.126410  0.465060  Uiso  0.025330
    O1  O2-  1.0000  0.729770  0.160290  0.465060  Uiso  0.025330
    O1  O2-  1.0000  0.998220  0.194170  0.465060  Uiso  0.025330
    O1  O2-  1.0000  0.158980  0.360970  0.465060  Uiso  0.025330
    O1  O2-  1.0000  0.427430  0.394860  0.465060  Uiso  0.025330
    O1  O2-  1.0000  0.695880  0.428740  0.465060  Uiso  0.025330
    O1  O2-  1.0000  0.964330  0.462620  0.465060  Uiso  0.025330
    O1  O2-  1.0000  0.125100  0.629430  0.465060  Uiso  0.025330
    O1  O2-  1.0000  0.393550  0.663310  0.465060  Uiso  0.025330
    O1  O2-  1.0000  0.662000  0.697190  0.465060  Uiso  0.025330
    O1  O2-  1.0000  0.930450  0.731070  0.465060  Uiso  0.025330
    O1  O2-  1.0000  0.091220  0.897880  0.465060  Uiso  0.025330
    O1  O2-  1.0000  0.359670  0.931760  0.465060  Uiso  0.025330
    O1  O2-  1.0000  0.628120  0.965640  0.465060  Uiso  0.025330
    O1  O2-  1.0000  0.896570  0.999520  0.465060  Uiso  0.025330
    O1  O2-  1.0000  0.192870  0.092520  0.498880  Uiso  0.025330
    O1  O2-  1.0000  0.461320  0.126410  0.498880  Uiso  0.025330
    O1  O2-  1.0000  0.729770  0.160290  0.498880  Uiso  0.025330
    O1  O2-  1.0000  0.998220  0.194170  0.498880  Uiso  0.025330
    O1  O2-  1.0000  0.158980  0.360970  0.498880  Uiso  0.025330
    O1  O2-  1.0000  0.427430  0.394860  0.498880  Uiso  0.025330
    O1  O2-  1.0000  0.695880  0.428740  0.498880  Uiso  0.025330
    O1  O2-  1.0000  0.964330  0.462620  0.498880  Uiso  0.025330
    O1  O2-  1.0000  0.125100  0.629430  0.498880  Uiso  0.025330
    O1  O2-  1.0000  0.393550  0.663310  0.498880  Uiso  0.025330
    O1  O2-  1.0000  0.662000  0.697190  0.498880  Uiso  0.025330
    O1  O2-  1.0000  0.930450  0.731070  0.498880  Uiso  0.025330
    O1  O2-  1.0000  0.091220  0.897880  0.498880  Uiso  0.025330
    O1  O2-  1.0000  0.359670  0.931760  0.498880  Uiso  0.025330
    O1  O2-  1.0000  0.628120  0.965640  0.498880  Uiso  0.025330
    O1  O2-  1.0000  0.896570  0.999520  0.498880  Uiso  0.025330
    O1  O2-  1.0000  0.192870  0.092520  0.532700  Uiso  0.025330
    O1  O2-  1.0000  0.461320  0.126410  0.532700  Uiso  0.025330
    O1  O2-  1.0000  0.729770  0.160290  0.532700  Uiso  0.025330
    O1  O2-  1.0000  0.998220  0.194170  0.532700  Uiso  0.025330
    O1  O2-  1.0000  0.158980  0.360970  0.532700  Uiso  0.025330
    O1  O2-  1.0000  0.427430  0.394860  0.532700  Uiso  0.025330
    O1  O2-  1.0000  0.695880  0.428740  0.532700  Uiso  0.025330
    O1  O2-  1.0000  0.964330  0.462620  0.532700  Uiso  0.025330
    O1  O2-  1.0000  0.125100  0.629430  0.532700  Uiso  0.025330
    O1  O2-  1.0000  0.393550  0.663310  0.532700  Uiso  0.025330
    O1  O2-  1.0000  0.662000  0.697190  0.532700  Uiso  0.025330
    O1  O2-  1.0000  0.930450  0.731070  0.532700  Uiso  0.025330
    O1  O2-  1.0000  0.091220  0.897880  0.532700  Uiso  0.025330
    O1  O2-  1.0000  0.359670  0.931760  0.532700  Uiso  0.025330
    O1  O2-  1.0000  0.628120  0.965640  0.532700  Uiso  0.025330
    O1  O2-  1.0000  0.896570  0.999520  0.532700  Uiso  0.025330
    O1  O2-  1.0000  0.192870  0.092520  0.566530  Uiso  0.025330
    O1  O2-  1.0000  0.461320  0.126410  0.566530  Uiso  0.025330
    O1  O2-  1.0000  0.729770  0.160290  0.566530  Uiso  0.025330
    O1  O2-  1.0000  0.998220  0.194170  0.566530  Uiso  0.025330
    O1  O2-  1.0000  0.158980  0.360970  0.566530  Uiso  0.025330
    O1  O2-  1.0000  0.427430  0.394860  0.566530  Uiso  0.025330
    O1  O2-  1.0000  0.695880  0.428740  0.566530  Uiso  0.025330
    O1  O2-  1.0000  0.964330  0.462620  0.566530  Uiso  0.025330
    O1  O2-  1.0000  0.125100  0.629430  0.566530  Uiso  0.025330
    O1  O2-  1.0000  0.393550  0.663310  0.566530  Uiso  0.025330
    O1  O2-  1.0000  0.662000  0.697190  0.566530  Uiso  0.025330
    O1  O2-  1.0000  0.930450  0.731070  0.566530  Uiso  0.025330
    O1  O2-  1.0000  0.091220  0.897880  0.566530  Uiso  0.025330
    O1  O2-  1.0000  0.359670  0.931760  0.566530  Uiso  0.025330
    O1  O2-  1.0000  0.628120  0.965640  0.566530  Uiso  0.025330
    O1  O2-  1.0000  0.896570  0.999520  0.566530  Uiso  0.025330
    O1  O2-  1.0000  0.192870  0.092520  0.600350  Uiso  0.025330
    O1  O2-  1.0000  0.461320  0.126410  0.600350  Uiso  0.025330
    O1  O2-  1.0000  0.729770  0.160290  0.600350  Uiso  0.025330
    O1  O2-  1.0000  0.998220  0.194170  0.600350  Uiso  0.025330
    O1  O2-  1.0000  0.158980  0.360970  0.600350  Uiso  0.025330
    O1  O2-  1.0000  0.427430  0.394860  0.600350  Uiso  0.025330
    O1  O2-  1.0000  0.695880  0.428740  0.600350  Uiso  0.025330
    O1  O2-  1.0000  0.964330  0.462620  0.600350  Uiso  0.025330
    O1  O2-  1.0000  0.125100  0.629430  0.600350  Uiso  0.025330
    O1  O2-  1.0000  0.393550  0.663310  0.600350  Uiso  0.025330
    O1  O2-  1.0000  0.662000  0.697190  0.600350  Uiso  0.025330
    O1  O2-  1.0000  0.930450  0.731070  0.600350  Uiso  0.025330
    O1  O2-  1.0000  0.091220  0.897880  0.600350  Uiso  0.025330
    O1  O2-  1.0000  0.359670  0.931760  0.600350  Uiso  0.025330
    O1  O2-  1.0000  0.628120  0.965640  0.600350  Uiso  0.025330
    O1  O2-  1.0000  0.896570  0.999520  0.600350  Uiso  0.025330
    O1  O2-  1.0000  0.192870  0.092520  0.634170  Uiso  0.025330
    O1  O2-  1.0000  0.461320  0.126410  0.634170  Uiso  0.025330
    O1  O2-  1.0000  0.729770  0.160290  0.634170  Uiso  0.025330
    O1  O2-  1.0000  0.998220  0.194170  0.634170  Uiso  0.025330
    O1  O2-  1.0000  0.158980  0.360970  0.634170  Uiso  0.025330
    O1  O2-  1.0000  0.427430  0.394860  0.634170  Uiso  0.025330
    O1  O2-  1.0000  0.695880  0.428740  0.634170  Uiso  0.025330
    O1  O2-  1.0000  0.964330  0.462620  0.634170  Uiso  0.025330
    O1  O2-  1.0000  0.125100  0.629430  0.634170  Uiso  0.025330
    O1  O2-  1.0000  0.393550  0.663310  0.634170  Uiso  0.025330
    O1  O2-  1.0000  0.662000  0.697190  0.634170  Uiso  0.025330
    O1  O2-  1.0000  0.930450  0.731070  0.634170  Uiso  0.025330
    O1  O2-  1.0000  0.091220  0.897880  0.634170  Uiso  0.025330
    O1  O2-  1.0000  0.359670  0.931760  0.634170  Uiso  0.025330
    O1  O2-  1.0000  0.628120  0.965640  0.634170  Uiso  0.025330
    O1  O2-  1.0000  0.896570  0.999520  0.634170  Uiso  0.025330
    O1  O2-  1.0000  0.192870  0.092520  0.667990  Uiso  0.025330
    O1  O2-  1.0000  0.461320  0.126410  0.667990  Uiso  0.025330
    O1  O2-  1.0000  0.729770  0.160290  0.667990  Uiso  0.025330
    O1  O2-  1.0000  0.998220  0.194170  0.667990  Uiso  0.025330
    O1  O2-  1.0000  0.158980  0.360970  0.667990  Uiso  0.025330
    O1  O2-  1.0000  0.427430  0.394860  0.667990  Uiso  0.025330
    O1  O2-  1.0000  0.695880  0.428740  0.667990  Uiso  0.025330
    O1  O2-  1.0000  0.964330  0.462620  0.667990  Uiso  0.025330
    O1  O2-  1.0000  0.125100  0.629430  0.667990  Uiso  0.025330
    O1  O2-  1.0000  0.393550  0.663310  0.667990  Uiso  0.025330
    O1  O2-  1.0000  0.662000  0.697190  0.667990  Uiso  0.025330
    O1  O2-  1.0000  0.930450  0.731070  0.667990  Uiso  0.025330
    O1  O2-  1.0000  0.091220  0.897880  0.667990  Uiso  0.025330
    O1  O2-  1.0000  0.359670  0.931760  0.667990  Uiso  0.025330
    O1  O2-  1.0000  0.628120  0.965640  0.667990  Uiso  0.025330
    O1  O2-  1.0000  0.896570  0.999520  0.667990  Uiso  0.025330
    O1  O2-  1.0000  0.192870  0.092520  0.701820  Uiso  0.025330
    O1  O2-  1.0000  0.461320  0.126410  0.701820  Uiso  0.025330
    O1  O2-  1.0000  0.729770  0.160290  0.701820  Uiso  0.025330
    O1  O2-  1.0000  0.998220  0.194170  0.701820  Uiso  0.025330
    O1  O2-  1.0000  0.158980  0.360970  0.701820  Uiso  0.025330
    O1  O2-  1.0000  0.427430  0.394860  0.701820  Uiso  0.025330
    O1  O2-  1.0000  0.695880  0.428740  0.701820  Uiso  0.025330
    O1  O2-  1.0000  0.964330  0.462620  0.701820  Uiso  0.025330
    O1  O2-  1.0000  0.125100  0.629430  0.701820  Uiso  0.025330
    O1  O2-  1.0000  0.393550  0.663310  0.701820  Uiso  0.025330
    O1  O2-  1.0000  0.662000  0.697190  0.701820  Uiso  0.025330
    O1  O2-  1.0000  0.930450  0.731070  0.701820  Uiso  0.025330
    O1  O2-  1.0000  0.091220  0.897880  0.701820  Uiso  0.025330
    O1  O2-  1.0000  0.359670  0.931760  0.701820  Uiso  0.025330
    O1  O2-  1.0000  0.628120  0.965640  0.701820  Uiso  0.025330
    O1  O2-  1.0000  0.896570  0.999520  0.701820  Uiso  0.025330
    O1  O2-  1.0000  0.192870  0.092520  0.735640  Uiso  0.025330
    O1  O2-  1.0000  0.461320  0.126410  0.735640  Uiso  0.025330
    O1  O2-  1.0000  0.729770  0.160290  0.735640  Uiso  0.025330
    O1  O2-  1.0000  0.998220  0.194170  0.735640  Uiso  0.025330
    O1  O2-  1.0000  0.158980  0.360970  0.735640  Uiso  0.025330
    O1  O2-  1.0000  0.427430  0.394860  0.735640  Uiso  0.025330
    O1  O2-  1.0000  0.695880  0.428740  0.735640  Uiso  0.025330
    O1  O2-  1.0000  0.964330  0.462620  0.735640  Uiso  0.025330
    O1  O2-  1.0000  0.125100  0.629430  0.735640  Uiso  0.025330
    O1  O2-  1.0000  0.393550  0.663310  0.735640  Uiso  0.025330
    O1  O2-  1.0000  0.662000  0.697190  0.735640  Uiso  0.025330
    O1  O2-  1.0000  0.930450  0.731070  0.735640  Uiso  0.025330
    O1  O2-  1.0000  0.091220  0.897880  0.735640  Uiso  0.025330
    O1  O2-  1.0000  0.359670  0.931760  0.735640  Uiso  0.025330
    O1  O2-  1.0000  0.628120  0.965640  0.735640  Uiso  0.025330
    O1  O2-  1.0000  0.896570  0.999520  0.735640  Uiso  0.025330
    O1  O2-  1.0000  0.192870  0.092520  0.769460  Uiso  0.025330
    O1  O2-  1.0000  0.461320  0.126410  0.769460  Uiso  0.025330
    O1  O2-  1.0000  0.729770  0.160290  0.769460  Uiso  0.025330
    O1  O2-  1.0000  0.998220  0.194170  0.769460  Uiso  0.025330
    O1  O2-  1.0000  0.158980  0.360970  0.769460  Uiso  0.025330
    O1  O2-  1.0000  0.427430  0.394860  0.769460  Uiso  0.025330
    O1  O2-  1.0000  0.695880  0.428740  0.769460  Uiso  0.025330
    O1  O2-  1.0000  0.964330  0.462620  0.769460  Uiso  0.025330
    O1  O2-  1.0000  0.125100  0.629430  0.769460  Uiso  0.025330
    O1  O2-  1.0000  0.393550  0.663310  0.769460  Uiso  0.025330
    O1  O2-  1.0000  0.662000  0.697190  0.769460  Uiso  0.025330
    O1  O2-  1.0000  0.930450  0.731070  0.769460  Uiso  0.025330
    O1  O2-  1.0000  0.091220  0.897880  0.769460  Uiso  0.025330
    O1  O2-  1.0000  0.359670  0.931760  0.769460  Uiso  0.025330
    O1  O2-  1.0000  0.628120  0.965640  0.769460  Uiso  0.025330
    O1  O2-  1.0000  0.896570  0.999520  0.769460  Uiso  0.025330
    O1  O2-  1.0000  0.192870  0.092520  0.803280  Uiso  0.025330
    O1  O2-  1.0000  0.461320  0.126410  0.803280  Uiso  0.025330
    O1  O2-  1.0000  0.729770  0.160290  0.803280  Uiso  0.025330
    O1  O2-  1.0000  0.998220  0.194170  0.803280  Uiso  0.025330
    O1  O2-  1.0000  0.158980  0.360970  0.803280  Uiso  0.025330
    O1  O2-  1.0000  0.427430  0.394860  0.803280  Uiso  0.025330
    O1  O2-  1.0000  0.695880  0.428740  0.803280  Uiso  0.025330
    O1  O2-  1.0000  0.964330  0.462620  0.803280  Uiso  0.025330
    O1  O2-  1.0000  0.125100  0.629430  0.803280  Uiso  0.025330
    O1  O2-  1.0000  0.393550  0.663310  0.803280  Uiso  0.025330
    O1  O2-  1.0000  0.662000  0.697190  0.803280  Uiso  0.025330
    O1  O2-  1.0000  0.930450  0.731070  0.803280  Uiso  0.025330
    O1  O2-  1.0000  0.091220  0.897880  0.803280  Uiso  0.025330
    O1  O2-  1.0000  0.359670  0.931760  0.803280  Uiso  0.025330
    O1  O2-  1.0000  0.628120  0.965640  0.803280  Uiso  0.025330
    O1  O2-  1.0000  0.896570  0.999520  0.803280  Uiso  0.025330
    O1  O2-  1.0000  0.192870  0.092520  0.837110  Uiso  0.025330
    O1  O2-  1.0000  0.461320  0.126410  0.837110  Uiso  0.025330
    O1  O2-  1.0000  0.729770  0.160290  0.837110  Uiso  0.025330
    O1  O2-  1.0000  0.998220  0.194170  0.837110  Uiso  0.025330
    O1  O2-  1.0000  0.158980  0.360970  0.837110  Uiso  0.025330
    O1  O2-  1.0000  0.427430  0.394860  0.837110  Uiso  0.025330
    O1  O2-  1.0000  0.695880  0.428740  0.837110  Uiso  0.025330
    O1  O2-  1.0000  0.964330  0.462620  0.837110  Uiso  0.025330
    O1  O2-  1.0000  0.125100  0.629430  0.837110  Uiso  0.025330
    O1  O2-  1.0000  0.393550  0.663310  0.837110  Uiso  0.025330
    O1  O2-  1.0000  0.662000  0.697190  0.837110  Uiso  0.025330
    O1  O2-  1.0000  0.930450  0.731070  0.837110  Uiso  0.025330
    O1  O2-  1.0000  0.091220  0.897880  0.837110  Uiso  0.025330
    O1  O2-  1.0000  0.359670  0.931760  0.837110  Uiso  0.025330
    O1  O2-  1.0000  0.628120  0.965640  0.837110  Uiso  0.025330
    O1  O2-  1.0000  0.896570  0.999520  0.837110  Uiso  0.025330
    O1  O2-  1.0000  0.192870  0.092520  0.870930  Uiso  0.025330
    O1  O2-  1.0000  0.461320  0.126410  0.870930  Uiso  0.025330
    O1  O2-  1.0000  0.729770  0.160290  0.870930  Uiso  0.025330
    O1  O2-  1.0000  0.998220  0.194170  0.870930  Uiso  0.025330
    O1  O2-  1.0000  0.158980  0.360970  0.870930  Uiso  0.025330
    O1  O2-  1.0000  0.427430  0.394860  0.870930  Uiso  0.025330
    O1  O2-  1.0000  0.695880  0.428740  0.870930  Uiso  0.025330
    O1  O2-  1.0000  0.964330  0.462620  0.870930  Uiso  0.025330
    O1  O2-  1.0000  0.125100  0.629430  0.870930  Uiso  0.025330
    O1  O2-  1.0000  0.393550  0.663310  0.870930  Uiso  0.025330
    O1  O2-  1.0000  0.662000  0.697190  0.870930  Uiso  0.025330
    O1  O2-  1.0000  0.930450  0.731070  0.870930  Uiso  0.025330
    O1  O2-  1.0000  0.091220  0.897880  0.870930  Uiso  0.025330
    O1  O2-  1.0000  0.359670  0.931760  0.870930  Uiso  0.025330
    O1  O2-  1.0000  0.628120  0.965640  0.870930  Uiso  0.025330
    O1  O2-  1.0000  0.896570  0.999520  0.870930  Uiso  0.025330
    O1  O2-  1.0000  0.192870  0.092520  0.904750  Uiso  0.025330
    O1  O2-  1.0000  0.461320  0.126410  0.904750  Uiso  0.025330
    O1  O2-  1.0000  0.729770  0.160290  0.904750  Uiso  0.025330
    O1  O2-  1.0000  0.998220  0.194170  0.904750  Uiso  0.025330
    O1  O2-  1.0000  0.158980  0.360970  0.904750  Uiso  0.025330
    O1  O2-  1.0000  0.427430  0.394860  0.904750  Uiso  0.025330
    O1  O2-  1.0000  0.695880  0.428740  0.904750  Uiso  0.025330
    O1  O2-  1.0000  0.964330  0.462620  0.904750  Uiso  0.025330
    O1  O2-  1.0000  0.125100  0.629430  0.904750  Uiso  0.025330
    O1  O2-  1.0000  0.393550  0.663310  0.904750  Uiso  0.025330
    O1  O2-  1.0000  0.662000  0.697190  0.904750  Uiso  0.025330
    O1  O2-  1.0000  0.930450  0.731070  0.904750  Uiso  0.025330
    O1  O2-  1.0000  0.091220  0.897880  0.904750  Uiso  0.025330
    O1  O2-  1.0000  0.359670  0.931760  0.904750  Uiso  0.025330
    O1  O2-  1.0000  0.628120  0.965640  0.904750  Uiso  0.025330
    O1  O2-  1.0000  0.896570  0.999520  0.904750  Uiso  0.025330
    O1  O2-  1.0000  0.192870  0.092520  0.938570  Uiso  0.025330
    O1  O2-  1.0000  0.461320  0.126410  0.938570  Uiso  0.025330
    O1  O2-  1.0000  0.729770  0.160290  0.938570  Uiso  0.025330
    O1  O2-  1.0000  0.998220  0.194170  0.938570  Uiso  0.025330
    O1  O2-  1.0000  0.158980  0.360970  0.938570  Uiso  0.025330
    O1  O2-  1.0000  0.427430  0.394860  0.938570  Uiso  0.025330
    O1  O2-  1.0000  0.695880  0.428740  0.938570  Uiso  0.025330
    O1  O2-  1.0000  0.964330  0.462620  0.938570  Uiso  0.025330
    O1  O2-  1.0000  0.125100  0.629430  0.938570  Uiso  0.025330
    O1  O2-  1.0000  0.393550  0.663310  0.938570  Uiso  0.025330
    O1  O2-  1.0000  0.662000  0.697190  0.938570  Uiso  0.025330
    O1  O2-  1.0000  0.930450  0.731070  0.938570  Uiso  0.025330
    O1  O2-  1.0000  0.091220  0.897880  0.938570  Uiso  0.025330
    O1  O2-  1.0000  0.359670  0.931760  0.938570  Uiso  0.025330
    O1  O2-  1.0000  0.628120  0.965640  0.938570  Uiso  0.025330
    O1  O2-  1.0000  0.896570  0.999520  0.938570  Uiso  0.025330
    O1  O2-  1.0000  0.192870  0.092520  0.972400  Uiso  0.025330
    O1  O2-  1.0000  0.461320  0.126410  0.972400  Uiso  0.025330
    O1  O2-  1.0000  0.729770  0.160290  0.972400  Uiso  0.025330
    O1  O2-  1.0000  0.998220  0.194170  0.972400  Uiso  0.025330
    O1  O2-  1.0000  0.158980  0.360970  0.972400  Uiso  0.025330
    O1  O2-  1.0000  0.427430  0.394860  0.972400  Uiso  0.025330
    O1  O2-  1.0000  0.695880  0.428740  0.972400  Uiso  0.025330
    O1  O2-  1.0000  0.964330  0.462620  0.972400  Uiso  0.025330
    O1  O2-  1.0000  0.125100  0.629430  0.972400  Uiso  0.025330
    O1  O2-  1.0000  0.393550  0.663310  0.972400  Uiso  0.025330
    O1  O2-  1.0000  0.662000  0.697190  0.972400  Uiso  0.025330
    O1  O2-  1.0000  0.930450  0.731070  0.972400  Uiso  0.025330
    O1  O2-  1.0000  0.091220  0.897880  0.972400  Uiso  0.025330
    O1  O2-  1.0000  0.359670  0.931760  0.972400  Uiso  0.025330
    O1  O2-  1.0000  0.628120  0.965640  0.972400  Uiso  0.025330
    O1  O2-  1.0000  0.896570  0.999520  0.972400  Uiso  0.025330
    O1  O2-  1.0000  0.192870  0.092520  0.008460  Uiso  0.025330
    O1  O2-  1.0000  0.461320  0.126410  0.008460  Uiso  0.025330
    O1  O2-  1.0000  0.729770  0.160290  0.008460  Uiso  0.025330
    O1  O2-  1.0000  0.998220  0.194170  0.008460  Uiso  0.025330
    O1  O2-  1.0000  0.158980  0.360970  0.008460  Uiso  0.025330
    O1  O2-  1.0000  0.427430  0.394860  0.008460  Uiso  0.025330
    O1  O2-  1.0000  0.695880  0.428740  0.008460  Uiso  0.025330
    O1  O2-  1.0000  0.964330  0.462620  0.008460  Uiso  0.025330
    O1  O2-  1.0000  0.125100  0.629430  0.008460  Uiso  0.025330
    O1  O2-  1.0000  0.393550  0.663310  0.008460  Uiso  0.025330
    O1  O2-  1.0000  0.662000  0.697190  0.008460  Uiso  0.025330
    O1  O2-  1.0000  0.930450  0.731070  0.008460  Uiso  0.025330
    O1  O2-  1.0000  0.091220  0.897880  0.008460  Uiso  0.025330
    O1  O2-  1.0000  0.359670  0.931760  0.008460  Uiso  0.025330
    O1  O2-  1.0000  0.628120  0.965640  0.008460  Uiso  0.025330
    O1  O2-  1.0000  0.896570  0.999520  0.008460  Uiso  0.025330
    O1  O2-  1.0000  0.192870  0.092520  0.042280  Uiso  0.025330
    O1  O2-  1.0000  0.461320  0.126410  0.042280  Uiso  0.025330
    O1  O2-  1.0000  0.729770  0.160290  0.042280  Uiso  0.025330
    O1  O2-  1.0000  0.998220  0.194170  0.042280  Uiso  0.025330
    O1  O2-  1.0000  0.158980  0.360970  0.042280  Uiso  0.025330
    O1  O2-  1.0000  0.427430  0.394860  0.042280  Uiso  0.025330
    O1  O2-  1.0000  0.695880  0.428740  0.042280  Uiso  0.025330
    O1  O2-  1.0000  0.964330  0.462620  0.042280  Uiso  0.025330
    O1  O2-  1.0000  0.125100  0.629430  0.042280  Uiso  0.025330
    O1  O2-  1.0000  0.393550  0.663310  0.042280  Uiso  0.025330
    O1  O2-  1.0000  0.662000  0.697190  0.042280  Uiso  0.025330
    O1  O2-  1.0000  0.930450  0.731070  0.042280  Uiso  0.025330
    O1  O2-  1.0000  0.091220  0.897880  0.042280  Uiso  0.025330
    O1  O2-  1.0000  0.359670  0.931760  0.042280  Uiso  0.025330
    O1  O2-  1.0000  0.628120  0.965640  0.042280  Uiso  0.025330
    O1  O2-  1.0000  0.896570  0.999520  0.042280  Uiso  0.025330
    O1  O2-  1.0000  0.192870  0.092520  0.076100  Uiso  0.025330
    O1  O2-  1.0000  0.461320  0.126410  0.076100  Uiso  0.025330
    O1  O2-  1.0000  0.729770  0.160290  0.076100  Uiso  0.025330
    O1  O2-  1.0000  0.998220  0.194170  0.076100  Uiso  0.025330
    O1  O2-  1.0000  0.158980  0.360970  0.076100  Uiso  0.025330
    O1  O2-  1.0000  0.427430  0.394860  0.076100  Uiso  0.025330
    O1  O2-  1.0000  0.695880  0.428740  0.076100  Uiso  0.025330
    O1  O2-  1.0000  0.964330  0.462620  0.076100  Uiso  0.025330
    O1  O2-  1.0000  0.125100  0.629430  0.076100  Uiso  0.025330
    O1  O2-  1.0000  0.393550  0.663310  0.076100  Uiso  0.025330
    O1  O2-  1.0000  0.662000  0.697190  0.076100  Uiso  0.025330
    O1  O2-  1.0000  0.930450  0.731070  0.076100  Uiso  0.025330
    O1  O2-  1.0000  0.091220  0.897880  0.076100  Uiso  0.025330
    O1  O2-  1.0000  0.359670  0.931760  0.076100  Uiso  0.025330
    O1  O2-  1.0000  0.628120  0.965640  0.076100  Uiso  0.025330
    O1  O2-  1.0000  0.896570  0.999520  0.076100  Uiso  0.025330
    O1  O2-  1.0000  0.192870  0.092520  0.109920  Uiso  0.025330
    O1  O2-  1.0000  0.461320  0.126410  0.109920  Uiso  0.025330
    O1  O2-  1.0000  0.729770  0.160290  0.109920  Uiso  0.025330
    O1  O2-  1.0000  0.998220  0.194170  0.109920  Uiso  0.025330
    O1  O2-  1.0000  0.158980  0.360970  0.109920  Uiso  0.025330
    O1  O2-  1.0000  0.427430  0.394860  0.109920  Uiso  0.025330
    O1  O2-  1.0000  0.695880  0.428740  0.109920  Uiso  0.025330
    O1  O2-  1.0000  0.964330  0.462620  0.109920  Uiso  0.025330
    O1  O2-  1.0000  0.125100  0.629430  0.109920  Uiso  0.025330
    O1  O2-  1.0000  0.393550  0.663310  0.109920  Uiso  0.025330
    O1  O2-  1.0000  0.662000  0.697190  0.109920  Uiso  0.025330
    O1  O2-  1.0000  0.930450  0.731070  0.109920  Uiso  0.025330
    O1  O2-  1.0000  0.091220  0.897880  0.109920  Uiso  0.025330
    O1  O2-  1.0000  0.359670  0.931760  0.109920  Uiso  0.025330
    O1  O2-  1.0000  0.628120  0.965640  0.109920  Uiso  0.025330
    O1  O2-  1.0000  0.896570  0.999520  0.109920  Uiso  0.025330
    O1  O2-  1.0000  0.192870  0.092520  0.143750  Uiso  0.025330
    O1  O2-  1.0000  0.461320  0.126410  0.143750  Uiso  0.025330
    O1  O2-  1.0000  0.729770  0.160290  0.143750  Uiso  0.025330
    O1  O2-  1.0000  0.998220  0.194170  0.143750  Uiso  0.025330
    O1  O2-  1.0000  0.158980  0.360970  0.143750  Uiso  0.025330
    O1  O2-  1.0000  0.427430  0.394860  0.143750  Uiso  0.025330
    O1  O2-  1.0000  0.695880  0.428740  0.143750  Uiso  0.025330
    O1  O2-  1.0000  0.964330  0.462620  0.143750  Uiso  0.025330
    O1  O2-  1.0000  0.125100  0.629430  0.143750  Uiso  0.025330
    O1  O2-  1.0000  0.393550  0.663310  0.143750  Uiso  0.025330
    O1  O2-  1.0000  0.662000  0.697190  0.143750  Uiso  0.025330
    O1  O2-  1.0000  0.930450  0.731070  0.143750  Uiso  0.025330
    O1  O2-  1.0000  0.091220  0.897880  0.143750  Uiso  0.025330
    O1  O2-  1.0000  0.359670  0.931760  0.143750  Uiso  0.025330
    O1  O2-  1.0000  0.628120  0.965640  0.143750  Uiso  0.025330
    O1  O2-  1.0000  0.896570  0.999520  0.143750  Uiso  0.025330
    O1  O2-  1.0000  0.192870  0.092520  0.177570  Uiso  0.025330
    O1  O2-  1.0000  0.461320  0.126410  0.177570  Uiso  0.025330
    O1  O2-  1.0000  0.729770  0.160290  0.177570  Uiso  0.025330
    O1  O2-  1.0000  0.998220  0.194170  0.177570  Uiso  0.025330
    O1  O2-  1.0000  0.158980  0.360970  0.177570  Uiso  0.025330
    O1  O2-  1.0000  0.427430  0.394860  0.177570  Uiso  0.025330
    O1  O2-  1.0000  0.695880  0.428740  0.177570  Uiso  0.025330
    O1  O2-  1.0000  0.964330  0.462620  0.177570  Uiso  0.025330
    O1  O2-  1.0000  0.125100  0.629430  0.177570  Uiso  0.025330
    O1  O2-  1.0000  0.393550  0.663310  0.177570  Uiso  0.025330
    O1  O2-  1.0000  0.662000  0.697190  0.177570  Uiso  0.025330
    O1  O2-  1.0000  0.930450  0.731070  0.177570  Uiso  0.025330
    O1  O2-  1.0000  0.091220  0.897880  0.177570  Uiso  0.025330
    O1  O2-  1.0000  0.359670  0.931760  0.177570  Uiso  0.025330
    O1  O2-  1.0000  0.628120  0.965640  0.177570  Uiso  0.025330
    O1  O2-  1.0000  0.896570  0.999520  0.177570  Uiso  0.025330
    O1  O2-  1.0000  0.192870  0.092520  0.211390  Uiso  0.025330
    O1  O2-  1.0000  0.461320  0.126410  0.211390  Uiso  0.025330
    O1  O2-  1.0000  0.729770  0.160290  0.211390  Uiso  0.025330
    O1  O2-  1.0000  0.998220  0.194170  0.211390  Uiso  0.025330
    O1  O2-  1.0000  0.158980  0.360970  0.211390  Uiso  0.025330
    O1  O2-  1.0000  0.427430  0.394860  0.211390  Uiso  0.025330
    O1  O2-  1.0000  0.695880  0.428740  0.211390  Uiso  0.025330
    O1  O2-  1.0000  0.964330  0.462620  0.211390  Uiso  0.025330
    O1  O2-  1.0000  0.125100  0.629430  0.211390  Uiso  0.025330
    O1  O2-  1.0000  0.393550  0.663310  0.211390  Uiso  0.025330
    O1  O2-  1.0000  0.662000  0.697190  0.211390  Uiso  0.025330
    O1  O2-  1.0000  0.930450  0.731070  0.211390  Uiso  0.025330
    O1  O2-  1.0000  0.091220  0.897880  0.211390  Uiso  0.025330
    O1  O2-  1.0000  0.359670  0.931760  0.211390  Uiso  0.025330
    O1  O2-  1.0000  0.628120  0.965640  0.211390  Uiso  0.025330
    O1  O2-  1.0000  0.896570  0.999520  0.211390  Uiso  0.025330
    O1  O2-  1.0000  0.192870  0.092520  0.245210  Uiso  0.025330
    O1  O2-  1.0000  0.461320  0.126410  0.245210  Uiso  0.025330
    O1  O2-  1.0000  0.729770  0.160290  0.245210  Uiso  0.025330
    O1  O2-  1.0000  0.998220  0.194170  0.245210  Uiso  0.025330
    O1  O2-  1.0000  0.158980  0.360970  0.245210  Uiso  0.025330
    O1  O2-  1.0000  0.427430  0.394860  0.245210  Uiso  0.025330
    O1  O2-  1.0000  0.695880  0.428740  0.245210  Uiso  0.025330
    O1  O2-  1.0000  0.964330  0.462620  0.245210  Uiso  0.025330
    O1  O2-  1.0000  0.125100  0.629430  0.245210  Uiso  0.025330
    O1  O2-  1.0000  0.393550  0.663310  0.245210  Uiso  0.025330
    O1  O2-  1.0000  0.662000  0.697190  0.245210  Uiso  0.025330
    O1  O2-  1.0000  0.930450  0.731070  0.245210  Uiso  0.025330
    O1  O2-  1.0000  0.091220  0.897880  0.245210  Uiso  0.025330
    O1  O2-  1.0000  0.359670  0.931760  0.245210  Uiso  0.025330
    O1  O2-  1.0000  0.628120  0.965640  0.245210  Uiso  0.025330
    O1  O2-  1.0000  0.896570  0.999520  0.245210  Uiso  0.025330
    O1  O2-  1.0000  0.192870  0.092520  0.279040  Uiso  0.025330
    O1  O2-  1.0000  0.461320  0.126410  0.279040  Uiso  0.025330
    O1  O2-  1.0000  0.729770  0.160290  0.279040  Uiso  0.025330
    O1  O2-  1.0000  0.998220  0.194170  0.279040  Uiso  0.025330
    O1  O2-  1.0000  0.158980  0.360970  0.279040  Uiso  0.025330
    O1  O2-  1.0000  0.427430  0.394860  0.279040  Uiso  0.025330
    O1  O2-  1.0000  0.695880  0.428740  0.279040  Uiso  0.025330
    O1  O2-  1.0000  0.964330  0.462620  0.279040  Uiso  0.025330
    O1  O2-  1.0000  0.125100  0.629430  0.279040  Uiso  0.025330
    O1  O2-  1.0000  0.393550  0.663310  0.279040  Uiso  0.025330
    O1  O2-  1.0000  0.662000  0.697190  0.279040  Uiso  0.025330
    O1  O2-  1.0000  0.930450  0.731070  0.279040  Uiso  0.025330
    O1  O2-  1.0000  0.091220  0.897880  0.279040  Uiso  0.025330
    O1  O2-  1.0000  0.359670  0.931760  0.279040  Uiso  0.025330
    O1  O2-  1.0000  0.628120  0.965640  0.279040  Uiso  0.025330
    O1  O2-  1.0000  0.896570  0.999520  0.279040  Uiso  0.025330
    O1  O2-  1.0000  0.192870  0.092520  0.312860  Uiso  0.025330
    O1  O2-  1.0000  0.461320  0.126410  0.312860  Uiso  0.025330
    O1  O2-  1.0000  0.729770  0.160290  0.312860  Uiso  0.025330
    O1  O2-  1.0000  0.998220  0.194170  0.312860  Uiso  0.025330
    O1  O2-  1.0000  0.158980  0.360970  0.312860  Uiso  0.025330
    O1  O2-  1.0000  0.427430  0.394860  0.312860  Uiso  0.025330
    O1  O2-  1.0000  0.695880  0.428740  0.312860  Uiso  0.025330
    O1  O2-  1.0000  0.964330  0.462620  0.312860  Uiso  0.025330
    O1  O2-  1.0000  0.125100  0.629430  0.312860  Uiso  0.025330
    O1  O2-  1.0000  0.393550  0.663310  0.312860  Uiso  0.025330
    O1  O2-  1.0000  0.662000  0.697190  0.312860  Uiso  0.025330
    O1  O2-  1.0000  0.930450  0.731070  0.312860  Uiso  0.025330
    O1  O2-  1.0000  0.091220  0.897880  0.312860  Uiso  0.025330
    O1  O2-  1.0000  0.359670  0.931760  0.312860  Uiso  0.025330
    O1  O2-  1.0000  0.628120  0.965640  0.312860  Uiso  0.025330
    O1  O2-  1.0000  0.896570  0.999520  0.312860  Uiso  0.025330
    O1  O2-  1.0000  0.192870  0.092520  0.346680  Uiso  0.025330
    O1  O2-  1.0000  0.461320  0.126410  0.346680  Uiso  0.025330
    O1  O2-  1.0000  0.729770  0.160290  0.346680  Uiso  0.025330
    O1  O2-  1.0000  0.998220  0.194170  0.346680  Uiso  0.025330
    O1  O2-  1.0000  0.158980  0.360970  0.346680  Uiso  0.025330
    O1  O2-  1.0000  0.427430  0.394860  0.346680  Uiso  0.025330
    O1  O2-  1.0000  0.695880  0.428740  0.346680  Uiso  0.025330
    O1  O2-  1.0000  0.964330  0.462620  0.346680  Uiso  0.025330
    O1  O2-  1.0000  0.125100  0.629430  0.346680  Uiso  0.025330
    O1  O2-  1.0000  0.393550  0.663310  0.346680  Uiso  0.025330
    O1  O2-  1.0000  0.662000  0.697190  0.346680  Uiso  0.025330
    O1  O2-  1.0000  0.930450  0.731070  0.346680  Uiso  0.025330
    O1  O2-  1.0000  0.091220  0.897880  0.346680  Uiso  0.025330
    O1  O2-  1.0000  0.359670  0.931760  0.346680  Uiso  0.025330
    O1  O2-  1.0000  0.628120  0.965640  0.346680  Uiso  0.025330
    O1  O2-  1.0000  0.896570  0.999520  0.346680  Uiso  0.025330
    O1  O2-  1.0000  0.192870  0.092520  0.380500  Uiso  0.025330
    O1  O2-  1.0000  0.461320  0.126410  0.380500  Uiso  0.025330
    O1  O2-  1.0000  0.729770  0.160290  0.380500  Uiso  0.025330
    O1  O2-  1.0000  0.998220  0.194170  0.380500  Uiso  0.025330
    O1  O2-  1.0000  0.158980  0.360970  0.380500  Uiso  0.025330
    O1  O2-  1.0000  0.427430  0.394860  0.380500  Uiso  0.025330
    O1  O2-  1.0000  0.695880  0.428740  0.380500  Uiso  0.025330
    O1  O2-  1.0000  0.964330  0.462620  0.380500  Uiso  0.025330
    O1  O2-  1.0000  0.125100  0.629430  0.380500  Uiso  0.025330
    O1  O2-  1.0000  0.393550  0.663310  0.380500  Uiso  0.025330
    O1  O2-  1.0000  0.662000  0.697190  0.380500  Uiso  0.025330
    O1  O2-  1.0000  0.930450  0.731070  0.380500  Uiso  0.025330
    O1  O2-  1.0000  0.091220  0.897880  0.380500  Uiso  0.025330
    O1  O2-  1.0000  0.359670  0.931760  0.380500  Uiso  0.025330
    O1  O2-  1.0000  0.628120  0.965640  0.380500  Uiso  0.025330
    O1  O2-  1.0000  0.896570  0.999520  0.380500  Uiso  0.025330
    O1  O2-  1.0000  0.192870  0.092520  0.414330  Uiso  0.025330
    O1  O2-  1.0000  0.461320  0.126410  0.414330  Uiso  0.025330
    O1  O2-  1.0000  0.729770  0.160290  0.414330  Uiso  0.025330
    O1  O2-  1.0000  0.998220  0.194170  0.414330  Uiso  0.025330
    O1  O2-  1.0000  0.158980  0.360970  0.414330  Uiso  0.025330
    O1  O2-  1.0000  0.427430  0.394860  0.414330  Uiso  0.025330
    O1  O2-  1.0000  0.695880  0.428740  0.414330  Uiso  0.025330
    O1  O2-  1.0000  0.964330  0.462620  0.414330  Uiso  0.025330
    O1  O2-  1.0000  0.125100  0.629430  0.414330  Uiso  0.025330
    O1  O2-  1.0000  0.393550  0.663310  0.414330  Uiso  0.025330
    O1  O2-  1.0000  0.662000  0.697190  0.414330  Uiso  0.025330
    O1  O2-  1.0000  0.930450  0.731070  0.414330  Uiso  0.025330
    O1  O2-  1.0000  0.091220  0.897880  0.414330  Uiso  0.025330
    O1  O2-  1.0000  0.359670  0.931760  0.414330  Uiso  0.025330
    O1  O2-  1.0000  0.628120  0.965640  0.414330  Uiso  0.025330
    O1  O2-  1.0000  0.896570  0.999520  0.414330  Uiso  0.025330
    O1  O2-  1.0000  0.192870  0.092520  0.448150  Uiso  0.025330
    O1  O2-  1.0000  0.461320  0.126410  0.448150  Uiso  0.025330
    O1  O2-  1.0000  0.729770  0.160290  0.448150  Uiso  0.025330
    O1  O2-  1.0000  0.998220  0.194170  0.448150  Uiso  0.025330
    O1  O2-  1.0000  0.158980  0.360970  0.448150  Uiso  0.025330
    O1  O2-  1.0000  0.427430  0.394860  0.448150  Uiso  0.025330
    O1  O2-  1.0000  0.695880  0.428740  0.448150  Uiso  0.025330
    O1  O2-  1.0000  0.964330  0.462620  0.448150  Uiso  0.025330
    O1  O2-  1.0000  0.125100  0.629430  0.448150  Uiso  0.025330
    O1  O2-  1.0000  0.393550  0.663310  0.448150  Uiso  0.025330
    O1  O2-  1.0000  0.662000  0.697190  0.448150  Uiso  0.025330
    O1  O2-  1.0000  0.930450  0.731070  0.448150  Uiso  0.025330
    O1  O2-  1.0000  0.091220  0.897880  0.448150  Uiso  0.025330
    O1  O2-  1.0000  0.359670  0.931760  0.448150  Uiso  0.025330
    O1  O2-  1.0000  0.628120  0.965640  0.448150  Uiso  0.025330
    O1  O2-  1.0000  0.896570  0.999520  0.448150  Uiso  0.025330
    O1  O2-  1.0000  0.192870  0.092520  0.481970  Uiso  0.025330
    O1  O2-  1.0000  0.461320  0.126410  0.481970  Uiso  0.025330
    O1  O2-  1.0000  0.729770  0.160290  0.481970  Uiso  0.025330
    O1  O2-  1.0000  0.998220  0.194170  0.481970  Uiso  0.025330
    O1  O2-  1.0000  0.158980  0.360970  0.481970  Uiso  0.025330
    O1  O2-  1.0000  0.427430  0.394860  0.481970  Uiso  0.025330
    O1  O2-  1.0000  0.695880  0.428740  0.481970  Uiso  0.025330
    O1  O2-  1.0000  0.964330  0.462620  0.481970  Uiso  0.025330
    O1  O2-  1.0000  0.125100  0.629430  0.481970  Uiso  0.025330
    O1  O2-  1.0000  0.393550  0.663310  0.481970  Uiso  0.025330
    O1  O2-  1.0000  0.662000  0.697190  0.481970  Uiso  0.025330
    O1  O2-  1.0000  0.930450  0.731070  0.481970  Uiso  0.025330
    O1  O2-  1.0000  0.091220  0.897880  0.481970  Uiso  0.025330
    O1  O2-  1.0000  0.359670  0.931760  0.481970  Uiso  0.025330
    O1  O2-  1.0000  0.628120  0.965640  0.481970  Uiso  0.025330
    O1  O2-  1.0000  0.896570  0.999520  0.481970  Uiso  0.025330
    O1  O2-  1.0000  0.192870  0.092520  0.515790  Uiso  0.025330
    O1  O2-  1.0000  0.461320  0.126410  0.515790  Uiso  0.025330
    O1  O2-  1.0000  0.729770  0.160290  0.515790  Uiso  0.025330
    O1  O2-  1.0000  0.998220  0.194170  0.515790  Uiso  0.025330
    O1  O2-  1.0000  0.158980  0.360970  0.515790  Uiso  0.025330
    O1  O2-  1.0000  0.427430  0.394860  0.515790  Uiso  0.025330
    O1  O2-  1.0000  0.695880  0.428740  0.515790  Uiso  0.025330
    O1  O2-  1.0000  0.964330  0.462620  0.515790  Uiso  0.025330
    O1  O2-  1.0000  0.125100  0.629430  0.515790  Uiso  0.025330
    O1  O2-  1.0000  0.393550  0.663310  0.515790  Uiso  0.025330
    O1  O2-  1.0000  0.662000  0.697190  0.515790  Uiso  0.025330
    O1  O2-  1.0000  0.930450  0.731070  0.515790  Uiso  0.025330
    O1  O2-  1.0000  0.091220  0.897880  0.515790  Uiso  0.025330
    O1  O2-  1.0000  0.359670  0.931760  0.515790  Uiso  0.025330
    O1  O2-  1.0000  0.628120  0.965640  0.515790  Uiso  0.025330
    O1  O2-  1.0000  0.896570  0.999520  0.515790  Uiso  0.025330
    O1  O2-  1.0000  0.192870  0.092520  0.549620  Uiso  0.025330
    O1  O2-  1.0000  0.461320  0.126410  0.549620  Uiso  0.025330
    O1  O2-  1.0000  0.729770  0.160290  0.549620  Uiso  0.025330
    O1  O2-  1.0000  0.998220  0.194170  0.549620  Uiso  0.025330
    O1  O2-  1.0000  0.158980  0.360970  0.549620  Uiso  0.025330
    O1  O2-  1.0000  0.427430  0.394860  0.549620  Uiso  0.025330
    O1  O2-  1.0000  0.695880  0.428740  0.549620  Uiso  0.025330
    O1  O2-  1.0000  0.964330  0.462620  0.549620  Uiso  0.025330
    O1  O2-  1.0000  0.125100  0.629430  0.549620  Uiso  0.025330
    O1  O2-  1.0000  0.393550  0.663310  0.549620  Uiso  0.025330
    O1  O2-  1.0000  0.662000  0.697190  0.549620  Uiso  0.025330
    O1  O2-  1.0000  0.930450  0.731070  0.549620  Uiso  0.025330
    O1  O2-  1.0000  0.091220  0.897880  0.549620  Uiso  0.025330
    O1  O2-  1.0000  0.359670  0.931760  0.549620  Uiso  0.025330
    O1  O2-  1.0000  0.628120  0.965640  0.549620  Uiso  0.025330
    O1  O2-  1.0000  0.896570  0.999520  0.549620  Uiso  0.025330
    O1  O2-  1.0000  0.192870  0.092520  0.583440  Uiso  0.025330
    O1  O2-  1.0000  0.461320  0.126410  0.583440  Uiso  0.025330
    O1  O2-  1.0000  0.729770  0.160290  0.583440  Uiso  0.025330
    O1  O2-  1.0000  0.998220  0.194170  0.583440  Uiso  0.025330
    O1  O2-  1.0000  0.158980  0.360970  0.583440  Uiso  0.025330
    O1  O2-  1.0000  0.427430  0.394860  0.583440  Uiso  0.025330
    O1  O2-  1.0000  0.695880  0.428740  0.583440  Uiso  0.025330
    O1  O2-  1.0000  0.964330  0.462620  0.583440  Uiso  0.025330
    O1  O2-  1.0000  0.125100  0.629430  0.583440  Uiso  0.025330
    O1  O2-  1.0000  0.393550  0.663310  0.583440  Uiso  0.025330
    O1  O2-  1.0000  0.662000  0.697190  0.583440  Uiso  0.025330
    O1  O2-  1.0000  0.930450  0.731070  0.583440  Uiso  0.025330
    O1  O2-  1.0000  0.091220  0.897880  0.583440  Uiso  0.025330
    O1  O2-  1.0000  0.359670  0.931760  0.583440  Uiso  0.025330
    O1  O2-  1.0000  0.628120  0.965640  0.583440  Uiso  0.025330
    O1  O2-  1.0000  0.896570  0.999520  0.583440  Uiso  0.025330
    O1  O2-  1.0000  0.192870  0.092520  0.617260  Uiso  0.025330
    O1  O2-  1.0000  0.461320  0.126410  0.617260  Uiso  0.025330
    O1  O2-  1.0000  0.729770  0.160290  0.617260  Uiso  0.025330
    O1  O2-  1.0000  0.998220  0.194170  0.617260  Uiso  0.025330
    O1  O2-  1.0000  0.158980  0.360970  0.617260  Uiso  0.025330
    O1  O2-  1.0000  0.427430  0.394860  0.617260  Uiso  0.025330
    O1  O2-  1.0000  0.695880  0.428740  0.617260  Uiso  0.025330
    O1  O2-  1.0000  0.964330  0.462620  0.617260  Uiso  0.025330
    O1  O2-  1.0000  0.125100  0.629430  0.617260  Uiso  0.025330
    O1  O2-  1.0000  0.393550  0.663310  0.617260  Uiso  0.025330
    O1  O2-  1.0000  0.662000  0.697190  0.617260  Uiso  0.025330
    O1  O2-  1.0000  0.930450  0.731070  0.617260  Uiso  0.025330
    O1  O2-  1.0000  0.091220  0.897880  0.617260  Uiso  0.025330
    O1  O2-  1.0000  0.359670  0.931760  0.617260  Uiso  0.025330
    O1  O2-  1.0000  0.628120  0.965640  0.617260  Uiso  0.025330
    O1  O2-  1.0000  0.896570  0.999520  0.617260  Uiso  0.025330
    O1  O2-  1.0000  0.192870  0.092520  0.651080  Uiso  0.025330
    O1  O2-  1.0000  0.461320  0.126410  0.651080  Uiso  0.025330
    O1  O2-  1.0000  0.729770  0.160290  0.651080  Uiso  0.025330
    O1  O2-  1.0000  0.998220  0.194170  0.651080  Uiso  0.025330
    O1  O2-  1.0000  0.158980  0.360970  0.651080  Uiso  0.025330
    O1  O2-  1.0000  0.427430  0.394860  0.651080  Uiso  0.025330
    O1  O2-  1.0000  0.695880  0.428740  0.651080  Uiso  0.025330
    O1  O2-  1.0000  0.964330  0.462620  0.651080  Uiso  0.025330
    O1  O2-  1.0000  0.125100  0.629430  0.651080  Uiso  0.025330
    O1  O2-  1.0000  0.393550  0.663310  0.651080  Uiso  0.025330
    O1  O2-  1.0000  0.662000  0.697190  0.651080  Uiso  0.025330
    O1  O2-  1.0000  0.930450  0.731070  0.651080  Uiso  0.025330
    O1  O2-  1.0000  0.091220  0.897880  0.651080  Uiso  0.025330
    O1  O2-  1.0000  0.359670  0.931760  0.651080  Uiso  0.025330
    O1  O2-  1.0000  0.628120  0.965640  0.651080  Uiso  0.025330
    O1  O2-  1.0000  0.896570  0.999520  0.651080  Uiso  0.025330
    O1  O2-  1.0000  0.192870  0.092520  0.684910  Uiso  0.025330
    O1  O2-  1.0000  0.461320  0.126410  0.684910  Uiso  0.025330
    O1  O2-  1.0000  0.729770  0.160290  0.684910  Uiso  0.025330
    O1  O2-  1.0000  0.998220  0.194170  0.684910  Uiso  0.025330
    O1  O2-  1.0000  0.158980  0.360970  0.684910  Uiso  0.025330
    O1  O2-  1.0000  0.427430  0.394860  0.684910  Uiso  0.025330
    O1  O2-  1.0000  0.695880  0.428740  0.684910  Uiso  0.025330
    O1  O2-  1.0000  0.964330  0.462620  0.684910  Uiso  0.025330
    O1  O2-  1.0000  0.125100  0.629430  0.684910  Uiso  0.025330
    O1  O2-  1.0000  0.393550  0.663310  0.684910  Uiso  0.025330
    O1  O2-  1.0000  0.662000  0.697190  0.684910  Uiso  0.025330
    O1  O2-  1.0000  0.930450  0.731070  0.684910  Uiso  0.025330
    O1  O2-  1.0000  0.091220  0.897880  0.684910  Uiso  0.025330
    O1  O2-  1.0000  0.359670  0.931760  0.684910  Uiso  0.025330
    O1  O2-  1.0000  0.628120  0.965640  0.684910  Uiso  0.025330
    O1  O2-  1.0000  0.896570  0.999520  0.684910  Uiso  0.025330
    O1  O2-  1.0000  0.192870  0.092520  0.718730  Uiso  0.025330
    O1  O2-  1.0000  0.461320  0.126410  0.718730  Uiso  0.025330
    O1  O2-  1.0000  0.729770  0.160290  0.718730  Uiso  0.025330
    O1  O2-  1.0000  0.998220  0.194170  0.718730  Uiso  0.025330
    O1  O2-  1.0000  0.158980  0.360970  0.718730  Uiso  0.025330
    O1  O2-  1.0000  0.427430  0.394860  0.718730  Uiso  0.025330
    O1  O2-  1.0000  0.695880  0.428740  0.718730  Uiso  0.025330
    O1  O2-  1.0000  0.964330  0.462620  0.718730  Uiso  0.025330
    O1  O2-  1.0000  0.125100  0.629430  0.718730  Uiso  0.025330
    O1  O2-  1.0000  0.393550  0.663310  0.718730  Uiso  0.025330
    O1  O2-  1.0000  0.662000  0.697190  0.718730  Uiso  0.025330
    O1  O2-  1.0000  0.930450  0.731070  0.718730  Uiso  0.025330
    O1  O2-  1.0000  0.091220  0.897880  0.718730  Uiso  0.025330
    O1  O2-  1.0000  0.359670  0.931760  0.718730  Uiso  0.025330
    O1  O2-  1.0000  0.628120  0.965640  0.718730  Uiso  0.025330
    O1  O2-  1.0000  0.896570  0.999520  0.718730  Uiso  0.025330
    O1  O2-  1.0000  0.192870  0.092520  0.752550  Uiso  0.025330
    O1  O2-  1.0000  0.461320  0.126410  0.752550  Uiso  0.025330
    O1  O2-  1.0000  0.729770  0.160290  0.752550  Uiso  0.025330
    O1  O2-  1.0000  0.998220  0.194170  0.752550  Uiso  0.025330
    O1  O2-  1.0000  0.158980  0.360970  0.752550  Uiso  0.025330
    O1  O2-  1.0000  0.427430  0.394860  0.752550  Uiso  0.025330
    O1  O2-  1.0000  0.695880  0.428740  0.752550  Uiso  0.025330
    O1  O2-  1.0000  0.964330  0.462620  0.752550  Uiso  0.025330
    O1  O2-  1.0000  0.125100  0.629430  0.752550  Uiso  0.025330
    O1  O2-  1.0000  0.393550  0.663310  0.752550  Uiso  0.025330
    O1  O2-  1.0000  0.662000  0.697190  0.752550  Uiso  0.025330
    O1  O2-  1.0000  0.930450  0.731070  0.752550  Uiso  0.025330
    O1  O2-  1.0000  0.091220  0.897880  0.752550  Uiso  0.025330
    O1  O2-  1.0000  0.359670  0.931760  0.752550  Uiso  0.025330
    O1  O2-  1.0000  0.628120  0.965640  0.752550  Uiso  0.025330
    O1  O2-  1.0000  0.896570  0.999520  0.752550  Uiso  0.025330
    O1  O2-  1.0000  0.192870  0.092520  0.786370  Uiso  0.025330
    O1  O2-  1.0000  0.461320  0.126410  0.786370  Uiso  0.025330
    O1  O2-  1.0000  0.729770  0.160290  0.786370  Uiso  0.025330
    O1  O2-  1.0000  0.998220  0.194170  0.786370  Uiso  0.025330
    O1  O2-  1.0000  0.158980  0.360970  0.786370  Uiso  0.025330
    O1  O2-  1.0000  0.427430  0.394860  0.786370  Uiso  0.025330
    O1  O2-  1.0000  0.695880  0.428740  0.786370  Uiso  0.025330
    O1  O2-  1.0000  0.964330  0.462620  0.786370  Uiso  0.025330
    O1  O2-  1.0000  0.125100  0.629430  0.786370  Uiso  0.025330
    O1  O2-  1.0000  0.393550  0.663310  0.786370  Uiso  0.025330
    O1  O2-  1.0000  0.662000  0.697190  0.786370  Uiso  0.025330
    O1  O2-  1.0000  0.930450  0.731070  0.786370  Uiso  0.025330
    O1  O2-  1.0000  0.091220  0.897880  0.786370  Uiso  0.025330
    O1  O2-  1.0000  0.359670  0.931760  0.786370  Uiso  0.025330
    O1  O2-  1.0000  0.628120  0.965640  0.786370  Uiso  0.025330
    O1  O2-  1.0000  0.896570  0.999520  0.786370  Uiso  0.025330
    O1  O2-  1.0000  0.192870  0.092520  0.820200  Uiso  0.025330
    O1  O2-  1.0000  0.461320  0.126410  0.820200  Uiso  0.025330
    O1  O2-  1.0000  0.729770  0.160290  0.820200  Uiso  0.025330
    O1  O2-  1.0000  0.998220  0.194170  0.820200  Uiso  0.025330
    O1  O2-  1.0000  0.158980  0.360970  0.820200  Uiso  0.025330
    O1  O2-  1.0000  0.427430  0.394860  0.820200  Uiso  0.025330
    O1  O2-  1.0000  0.695880  0.428740  0.820200  Uiso  0.025330
    O1  O2-  1.0000  0.964330  0.462620  0.820200  Uiso  0.025330
    O1  O2-  1.0000  0.125100  0.629430  0.820200  Uiso  0.025330
    O1  O2-  1.0000  0.393550  0.663310  0.820200  Uiso  0.025330
    O1  O2-  1.0000  0.662000  0.697190  0.820200  Uiso  0.025330
    O1  O2-  1.0000  0.930450  0.731070  0.820200  Uiso  0.025330
    O1  O2-  1.0000  0.091220  0.897880  0.820200  Uiso  0.025330
    O1  O2-  1.0000  0.359670  0.931760  0.820200  Uiso  0.025330
    O1  O2-  1.0000  0.628120  0.965640  0.820200  Uiso  0.025330
    O1  O2-  1.0000  0.896570  0.999520  0.820200  Uiso  0.025330
    O1  O2-  1.0000  0.192870  0.092520  0.854020  Uiso  0.025330
    O1  O2-  1.0000  0.461320  0.126410  0.854020  Uiso  0.025330
    O1  O2-  1.0000  0.729770  0.160290  0.854020  Uiso  0.025330
    O1  O2-  1.0000  0.998220  0.194170  0.854020  Uiso  0.025330
    O1  O2-  1.0000  0.158980  0.360970  0.854020  Uiso  0.025330
    O1  O2-  1.0000  0.427430  0.394860  0.854020  Uiso  0.025330
    O1  O2-  1.0000  0.695880  0.428740  0.854020  Uiso  0.025330
    O1  O2-  1.0000  0.964330  0.462620  0.854020  Uiso  0.025330
    O1  O2-  1.0000  0.125100  0.629430  0.854020  Uiso  0.025330
    O1  O2-  1.0000  0.393550  0.663310  0.854020  Uiso  0.025330
    O1  O2-  1.0000  0.662000  0.697190  0.854020  Uiso  0.025330
    O1  O2-  1.0000  0.930450  0.731070  0.854020  Uiso  0.025330
    O1  O2-  1.0000  0.091220  0.897880  0.854020  Uiso  0.025330
    O1  O2-  1.0000  0.359670  0.931760  0.854020  Uiso  0.025330
    O1  O2-  1.0000  0.628120  0.965640  0.854020  Uiso  0.025330
    O1  O2-  1.0000  0.896570  0.999520  0.854020  Uiso  0.025330
    O1  O2-  1.0000  0.192870  0.092520  0.887840  Uiso  0.025330
    O1  O2-  1.0000  0.461320  0.126410  0.887840  Uiso  0.025330
    O1  O2-  1.0000  0.729770  0.160290  0.887840  Uiso  0.025330
    O1  O2-  1.0000  0.998220  0.194170  0.887840  Uiso  0.025330
    O1  O2-  1.0000  0.158980  0.360970  0.887840  Uiso  0.025330
    O1  O2-  1.0000  0.427430  0.394860  0.887840  Uiso  0.025330
    O1  O2-  1.0000  0.695880  0.428740  0.887840  Uiso  0.025330
    O1  O2-  1.0000  0.964330  0.462620  0.887840  Uiso  0.025330
    O1  O2-  1.0000  0.125100  0.629430  0.887840  Uiso  0.025330
    O1  O2-  1.0000  0.393550  0.663310  0.887840  Uiso  0.025330
    O1  O2-  1.0000  0.662000  0.697190  0.887840  Uiso  0.025330
    O1  O2-  1.0000  0.930450  0.731070  0.887840  Uiso  0.025330
    O1  O2-  1.0000  0.091220  0.897880  0.887840  Uiso  0.025330
    O1  O2-  1.0000  0.359670  0.931760  0.887840  Uiso  0.025330
    O1  O2-  1.0000  0.628120  0.965640  0.887840  Uiso  0.025330
    O1  O2-  1.0000  0.896570  0.999520  0.887840  Uiso  0.025330
    O1  O2-  1.0000  0.192870  0.092520  0.921660  Uiso  0.025330
    O1  O2-  1.0000  0.461320  0.126410  0.921660  Uiso  0.025330
    O1  O2-  1.0000  0.729770  0.160290  0.921660  Uiso  0.025330
    O1  O2-  1.0000  0.998220  0.194170  0.921660  Uiso  0.025330
    O1  O2-  1.0000  0.158980  0.360970  0.921660  Uiso  0.025330
    O1  O2-  1.0000  0.427430  0.394860  0.921660  Uiso  0.025330
    O1  O2-  1.0000  0.695880  0.428740  0.921660  Uiso  0.025330
    O1  O2-  1.0000  0.964330  0.462620  0.921660  Uiso  0.025330
    O1  O2-  1.0000  0.125100  0.629430  0.921660  Uiso  0.025330
    O1  O2-  1.0000  0.393550  0.663310  0.921660  Uiso  0.025330
    O1  O2-  1.0000  0.662000  0.697190  0.921660  Uiso  0.025330
    O1  O2-  1.0000  0.930450  0.731070  0.921660  Uiso  0.025330
    O1  O2-  1.0000  0.091220  0.897880  0.921660  Uiso  0.025330
    O1  O2-  1.0000  0.359670  0.931760  0.921660  Uiso  0.025330
    O1  O2-  1.0000  0.628120  0.965640  0.921660  Uiso  0.025330
    O1  O2-  1.0000  0.896570  0.999520  0.921660  Uiso  0.025330
    O1  O2-  1.0000  0.192870  0.092520  0.955490  Uiso  0.025330
    O1  O2-  1.0000  0.461320  0.126410  0.955490  Uiso  0.025330
    O1  O2-  1.0000  0.729770  0.160290  0.955490  Uiso  0.025330
    O1  O2-  1.0000  0.998220  0.194170  0.955490  Uiso  0.025330
    O1  O2-  1.0000  0.158980  0.360970  0.955490  Uiso  0.025330
    O1  O2-  1.0000  0.427430  0.394860  0.955490  Uiso  0.025330
    O1  O2-  1.0000  0.695880  0.428740  0.955490  Uiso  0.025330
    O1  O2-  1.0000  0.964330  0.462620  0.955490  Uiso  0.025330
    O1  O2-  1.0000  0.125100  0.629430  0.955490  Uiso  0.025330
    O1  O2-  1.0000  0.393550  0.663310  0.955490  Uiso  0.025330
    O1  O2-  1.0000  0.662000  0.697190  0.955490  Uiso  0.025330
    O1  O2-  1.0000  0.930450  0.731070  0.955490  Uiso  0.025330
    O1  O2-  1.0000  0.091220  0.897880  0.955490  Uiso  0.025330
    O1  O2-  1.0000  0.359670  0.931760  0.955490  Uiso  0.025330
    O1  O2-  1.0000  0.628120  0.965640  0.955490  Uiso  0.025330
    O1  O2-  1.0000  0.896570  0.999520  0.955490  Uiso  0.025330
    O1  O2-  1.0000  0.192870  0.092520  0.989310  Uiso  0.025330
    O1  O2-  1.0000  0.461320  0.126410  0.989310  Uiso  0.025330
    O1  O2-  1.0000  0.729770  0.160290  0.989310  Uiso  0.025330
    O1  O2-  1.0000  0.998220  0.194170  0.989310  Uiso  0.025330
    O1  O2-  1.0000  0.158980  0.360970  0.989310  Uiso  0.025330
    O1  O2-  1.0000  0.427430  0.394860  0.989310  Uiso  0.025330
    O1  O2-  1.0000  0.695880  0.428740  0.989310  Uiso  0.025330
    O1  O2-  1.0000  0.964330  0.462620  0.989310  Uiso  0.025330
    O1  O2-  1.0000  0.125100  0.629430  0.989310  Uiso  0.025330
    O1  O2-  1.0000  0.393550  0.663310  0.989310  Uiso  0.025330
    O1  O2-  1.0000  0.662000  0.697190  0.989310  Uiso  0.025330
    O1  O2-  1.0000  0.930450  0.731070  0.989310  Uiso  0.025330
    O1  O2-  1.0000  0.091220  0.897880  0.989310  Uiso  0.025330
    O1  O2-  1.0000  0.359670  0.931760  0.989310  Uiso  0.025330
    O1  O2-  1.0000  0.628120  0.965640  0.989310  Uiso  0.025330
    O1  O2-  1.0000  0.896570  0.999520  0.989310  Uiso  0.025330
    O1  O2-  1.0000  0.746710  0.026070  0.025370  Uiso  0.025330
    O1  O2-  1.0000  0.175930  0.226750  0.025370  Uiso  0.025330
    O1  O2-  1.0000  0.444380  0.260630  0.025370  Uiso  0.025330
    O1  O2-  1.0000  0.712830  0.294520  0.025370  Uiso  0.025330
    O1  O2-  1.0000  0.981280  0.328400  0.025370  Uiso  0.025330
    O1  O2-  1.0000  0.142040  0.495200  0.025370  Uiso  0.025330
    O1  O2-  1.0000  0.410490  0.529080  0.025370  Uiso  0.025330
    O1  O2-  1.0000  0.678940  0.562970  0.025370  Uiso  0.025330
    O1  O2-  1.0000  0.947390  0.596850  0.025370  Uiso  0.025330
    O1  O2-  1.0000  0.108160  0.763650  0.025370  Uiso  0.025330
    O1  O2-  1.0000  0.376610  0.797530  0.025370  Uiso  0.025330
    O1  O2-  1.0000  0.645060  0.831420  0.025370  Uiso  0.025330
    O1  O2-  1.0000  0.913510  0.865300  0.025370  Uiso  0.025330
    O1  O2-  1.0000  0.746710  0.026070  0.059190  Uiso  0.025330
    O1  O2-  1.0000  0.175930  0.226750  0.059190  Uiso  0.025330
    O1  O2-  1.0000  0.444380  0.260630  0.059190  Uiso  0.025330
    O1  O2-  1.0000  0.712830  0.294520  0.059190  Uiso  0.025330
    O1  O2-  1.0000  0.981280  0.328400  0.059190  Uiso  0.025330
    O1  O2-  1.0000  0.142040  0.495200  0.059190  Uiso  0.025330
    O1  O2-  1.0000  0.410490  0.529080  0.059190  Uiso  0.025330
    O1  O2-  1.0000  0.678940  0.562970  0.059190  Uiso  0.025330
    O1  O2-  1.0000  0.947390  0.596850  0.059190  Uiso  0.025330
    O1  O2-  1.0000  0.108160  0.763650  0.059190  Uiso  0.025330
    O1  O2-  1.0000  0.376610  0.797530  0.059190  Uiso  0.025330
    O1  O2-  1.0000  0.645060  0.831420  0.059190  Uiso  0.025330
    O1  O2-  1.0000  0.913510  0.865300  0.059190  Uiso  0.025330
    O1  O2-  1.0000  0.746710  0.026070  0.093010  Uiso  0.025330
    O1  O2-  1.0000  0.175930  0.226750  0.093010  Uiso  0.025330
    O1  O2-  1.0000  0.444380  0.260630  0.093010  Uiso  0.025330
    O1  O2-  1.0000  0.712830  0.294520  0.093010  Uiso  0.025330
    O1  O2-  1.0000  0.981280  0.328400  0.093010  Uiso  0.025330
    O1  O2-  1.0000  0.142040  0.495200  0.093010  Uiso  0.025330
    O1  O2-  1.0000  0.410490  0.529080  0.093010  Uiso  0.025330
    O1  O2-  1.0000  0.678940  0.562970  0.093010  Uiso  0.025330
    O1  O2-  1.0000  0.947390  0.596850  0.093010  Uiso  0.025330
    O1  O2-  1.0000  0.108160  0.763650  0.093010  Uiso  0.025330
    O1  O2-  1.0000  0.376610  0.797530  0.093010  Uiso  0.025330
    O1  O2-  1.0000  0.645060  0.831420  0.093010  Uiso  0.025330
    O1  O2-  1.0000  0.913510  0.865300  0.093010  Uiso  0.025330
    O1  O2-  1.0000  0.746710  0.026070  0.126830  Uiso  0.025330
    O1  O2-  1.0000  0.175930  0.226750  0.126830  Uiso  0.025330
    O1  O2-  1.0000  0.444380  0.260630  0.126830  Uiso  0.025330
    O1  O2-  1.0000  0.712830  0.294520  0.126830  Uiso  0.025330
    O1  O2-  1.0000  0.981280  0.328400  0.126830  Uiso  0.025330
    O1  O2-  1.0000  0.142040  0.495200  0.126830  Uiso  0.025330
    O1  O2-  1.0000  0.410490  0.529080  0.126830  Uiso  0.025330
    O1  O2-  1.0000  0.678940  0.562970  0.126830  Uiso  0.025330
    O1  O2-  1.0000  0.947390  0.596850  0.126830  Uiso  0.025330
    O1  O2-  1.0000  0.108160  0.763650  0.126830  Uiso  0.025330
    O1  O2-  1.0000  0.376610  0.797530  0.126830  Uiso  0.025330
    O1  O2-  1.0000  0.645060  0.831420  0.126830  Uiso  0.025330
    O1  O2-  1.0000  0.913510  0.865300  0.126830  Uiso  0.025330
    O1  O2-  1.0000  0.746710  0.026070  0.160660  Uiso  0.025330
    O1  O2-  1.0000  0.175930  0.226750  0.160660  Uiso  0.025330
    O1  O2-  1.0000  0.444380  0.260630  0.160660  Uiso  0.025330
    O1  O2-  1.0000  0.712830  0.294520  0.160660  Uiso  0.025330
    O1  O2-  1.0000  0.981280  0.328400  0.160660  Uiso  0.025330
    O1  O2-  1.0000  0.142040  0.495200  0.160660  Uiso  0.025330
    O1  O2-  1.0000  0.410490  0.529080  0.160660  Uiso  0.025330
    O1  O2-  1.0000  0.678940  0.562970  0.160660  Uiso  0.025330
    O1  O2-  1.0000  0.947390  0.596850  0.160660  Uiso  0.025330
    O1  O2-  1.0000  0.108160  0.763650  0.160660  Uiso  0.025330
    O1  O2-  1.0000  0.376610  0.797530  0.160660  Uiso  0.025330
    O1  O2-  1.0000  0.645060  0.831420  0.160660  Uiso  0.025330
    O1  O2-  1.0000  0.913510  0.865300  0.160660  Uiso  0.025330
    O1  O2-  1.0000  0.746710  0.026070  0.194480  Uiso  0.025330
    O1  O2-  1.0000  0.175930  0.226750  0.194480  Uiso  0.025330
    O1  O2-  1.0000  0.444380  0.260630  0.194480  Uiso  0.025330
    O1  O2-  1.0000  0.712830  0.294520  0.194480  Uiso  0.025330
    O1  O2-  1.0000  0.981280  0.328400  0.194480  Uiso  0.025330
    O1  O2-  1.0000  0.142040  0.495200  0.194480  Uiso  0.025330
    O1  O2-  1.0000  0.410490  0.529080  0.194480  Uiso  0.025330
    O1  O2-  1.0000  0.678940  0.562970  0.194480  Uiso  0.025330
    O1  O2-  1.0000  0.947390  0.596850  0.194480  Uiso  0.025330
    O1  O2-  1.0000  0.108160  0.763650  0.194480  Uiso  0.025330
    O1  O2-  1.0000  0.376610  0.797530  0.194480  Uiso  0.025330
    O1  O2-  1.0000  0.645060  0.831420  0.194480  Uiso  0.025330
    O1  O2-  1.0000  0.913510  0.865300  0.194480  Uiso  0.025330
    O1  O2-  1.0000  0.746710  0.026070  0.228300  Uiso  0.025330
    O1  O2-  1.0000  0.175930  0.226750  0.228300  Uiso  0.025330
    O1  O2-  1.0000  0.444380  0.260630  0.228300  Uiso  0.025330
    O1  O2-  1.0000  0.712830  0.294520  0.228300  Uiso  0.025330
    O1  O2-  1.0000  0.981280  0.328400  0.228300  Uiso  0.025330
    O1  O2-  1.0000  0.142040  0.495200  0.228300  Uiso  0.025330
    O1  O2-  1.0000  0.410490  0.529080  0.228300  Uiso  0.025330
    O1  O2-  1.0000  0.678940  0.562970  0.228300  Uiso  0.025330
    O1  O2-  1.0000  0.947390  0.596850  0.228300  Uiso  0.025330
    O1  O2-  1.0000  0.108160  0.763650  0.228300  Uiso  0.025330
    O1  O2-  1.0000  0.376610  0.797530  0.228300  Uiso  0.025330
    O1  O2-  1.0000  0.645060  0.831420  0.228300  Uiso  0.025330
    O1  O2-  1.0000  0.913510  0.865300  0.228300  Uiso  0.025330
    O1  O2-  1.0000  0.746710  0.026070  0.262120  Uiso  0.025330
    O1  O2-  1.0000  0.175930  0.226750  0.262120  Uiso  0.025330
    O1  O2-  1.0000  0.444380  0.260630  0.262120  Uiso  0.025330
    O1  O2-  1.0000  0.712830  0.294520  0.262120  Uiso  0.025330
    O1  O2-  1.0000  0.981280  0.328400  0.262120  Uiso  0.025330
    O1  O2-  1.0000  0.142040  0.495200  0.262120  Uiso  0.025330
    O1  O2-  1.0000  0.410490  0.529080  0.262120  Uiso  0.025330
    O1  O2-  1.0000  0.678940  0.562970  0.262120  Uiso  0.025330
    O1  O2-  1.0000  0.947390  0.596850  0.262120  Uiso  0.025330
    O1  O2-  1.0000  0.108160  0.763650  0.262120  Uiso  0.025330
    O1  O2-  1.0000  0.376610  0.797530  0.262120  Uiso  0.025330
    O1  O2-  1.0000  0.645060  0.831420  0.262120  Uiso  0.025330
    O1  O2-  1.0000  0.913510  0.865300  0.262120  Uiso  0.025330
    O1  O2-  1.0000  0.746710  0.026070  0.295950  Uiso  0.025330
    O1  O2-  1.0000  0.175930  0.226750  0.295950  Uiso  0.025330
    O1  O2-  1.0000  0.444380  0.260630  0.295950  Uiso  0.025330
    O1  O2-  1.0000  0.712830  0.294520  0.295950  Uiso  0.025330
    O1  O2-  1.0000  0.981280  0.328400  0.295950  Uiso  0.025330
    O1  O2-  1.0000  0.142040  0.495200  0.295950  Uiso  0.025330
    O1  O2-  1.0000  0.410490  0.529080  0.295950  Uiso  0.025330
    O1  O2-  1.0000  0.678940  0.562970  0.295950  Uiso  0.025330
    O1  O2-  1.0000  0.947390  0.596850  0.295950  Uiso  0.025330
    O1  O2-  1.0000  0.108160  0.763650  0.295950  Uiso  0.025330
    O1  O2-  1.0000  0.376610  0.797530  0.295950  Uiso  0.025330
    O1  O2-  1.0000  0.645060  0.831420  0.295950  Uiso  0.025330
    O1  O2-  1.0000  0.913510  0.865300  0.295950  Uiso  0.025330
    O1  O2-  1.0000  0.746710  0.026070  0.329770  Uiso  0.025330
    O1  O2-  1.0000  0.175930  0.226750  0.329770  Uiso  0.025330
    O1  O2-  1.0000  0.444380  0.260630  0.329770  Uiso  0.025330
    O1  O2-  1.0000  0.712830  0.294520  0.329770  Uiso  0.025330
    O1  O2-  1.0000  0.981280  0.328400  0.329770  Uiso  0.025330
    O1  O2-  1.0000  0.142040  0.495200  0.329770  Uiso  0.025330
    O1  O2-  1.0000  0.410490  0.529080  0.329770  Uiso  0.025330
    O1  O2-  1.0000  0.678940  0.562970  0.329770  Uiso  0.025330
    O1  O2-  1.0000  0.947390  0.596850  0.329770  Uiso  0.025330
    O1  O2-  1.0000  0.108160  0.763650  0.329770  Uiso  0.025330
    O1  O2-  1.0000  0.376610  0.797530  0.329770  Uiso  0.025330
    O1  O2-  1.0000  0.645060  0.831420  0.329770  Uiso  0.025330
    O1  O2-  1.0000  0.913510  0.865300  0.329770  Uiso  0.025330
    O1  O2-  1.0000  0.746710  0.026070  0.363590  Uiso  0.025330
    O1  O2-  1.0000  0.175930  0.226750  0.363590  Uiso  0.025330
    O1  O2-  1.0000  0.444380  0.260630  0.363590  Uiso  0.025330
    O1  O2-  1.0000  0.712830  0.294520  0.363590  Uiso  0.025330
    O1  O2-  1.0000  0.981280  0.328400  0.363590  Uiso  0.025330
    O1  O2-  1.0000  0.142040  0.495200  0.363590  Uiso  0.025330
    O1  O2-  1.0000  0.410490  0.529080  0.363590  Uiso  0.025330
    O1  O2-  1.0000  0.678940  0.562970  0.363590  Uiso  0.025330
    O1  O2-  1.0000  0.947390  0.596850  0.363590  Uiso  0.025330
    O1  O2-  1.0000  0.108160  0.763650  0.363590  Uiso  0.025330
    O1  O2-  1.0000  0.376610  0.797530  0.363590  Uiso  0.025330
    O1  O2-  1.0000  0.645060  0.831420  0.363590  Uiso  0.025330
    O1  O2-  1.0000  0.913510  0.865300  0.363590  Uiso  0.025330
    O1  O2-  1.0000  0.746710  0.026070  0.397410  Uiso  0.025330
    O1  O2-  1.0000  0.175930  0.226750  0.397410  Uiso  0.025330
    O1  O2-  1.0000  0.444380  0.260630  0.397410  Uiso  0.025330
    O1  O2-  1.0000  0.712830  0.294520  0.397410  Uiso  0.025330
    O1  O2-  1.0000  0.981280  0.328400  0.397410  Uiso  0.025330
    O1  O2-  1.0000  0.142040  0.495200  0.397410  Uiso  0.025330
    O1  O2-  1.0000  0.410490  0.529080  0.397410  Uiso  0.025330
    O1  O2-  1.0000  0.678940  0.562970  0.397410  Uiso  0.025330
    O1  O2-  1.0000  0.947390  0.596850  0.397410  Uiso  0.025330
    O1  O2-  1.0000  0.108160  0.763650  0.397410  Uiso  0.025330
    O1  O2-  1.0000  0.376610  0.797530  0.397410  Uiso  0.025330
    O1  O2-  1.0000  0.645060  0.831420  0.397410  Uiso  0.025330
    O1  O2-  1.0000  0.913510  0.865300  0.397410  Uiso  0.025330
    O1  O2-  1.0000  0.746710  0.026070  0.431240  Uiso  0.025330
    O1  O2-  1.0000  0.175930  0.226750  0.431240  Uiso  0.025330
    O1  O2-  1.0000  0.444380  0.260630  0.431240  Uiso  0.025330
    O1  O2-  1.0000  0.712830  0.294520  0.431240  Uiso  0.025330
    O1  O2-  1.0000  0.981280  0.328400  0.431240  Uiso  0.025330
    O1  O2-  1.0000  0.142040  0.495200  0.431240  Uiso  0.025330
    O1  O2-  1.0000  0.410490  0.529080  0.431240  Uiso  0.025330
    O1  O2-  1.0000  0.678940  0.562970  0.431240  Uiso  0.025330
    O1  O2-  1.0000  0.947390  0.596850  0.431240  Uiso  0.025330
    O1  O2-  1.0000  0.108160  0.763650  0.431240  Uiso  0.025330
    O1  O2-  1.0000  0.376610  0.797530  0.431240  Uiso  0.025330
    O1  O2-  1.0000  0.645060  0.831420  0.431240  Uiso  0.025330
    O1  O2-  1.0000  0.913510  0.865300  0.431240  Uiso  0.025330
    O1  O2-  1.0000  0.746710  0.026070  0.465060  Uiso  0.025330
    O1  O2-  1.0000  0.175930  0.226750  0.465060  Uiso  0.025330
    O1  O2-  1.0000  0.444380  0.260630  0.465060  Uiso  0.025330
    O1  O2-  1.0000  0.712830  0.294520  0.465060  Uiso  0.025330
    O1  O2-  1.0000  0.981280  0.328400  0.465060  Uiso  0.025330
    O1  O2-  1.0000  0.142040  0.495200  0.465060  Uiso  0.025330
    O1  O2-  1.0000  0.410490  0.529080  0.465060  Uiso  0.025330
    O1  O2-  1.0000  0.678940  0.562970  0.465060  Uiso  0.025330
    O1  O2-  1.0000  0.947390  0.596850  0.465060  Uiso  0.025330
    O1  O2-  1.0000  0.108160  0.763650  0.465060  Uiso  0.025330
    O1  O2-  1.0000  0.376610  0.797530  0.465060  Uiso  0.025330
    O1  O2-  1.0000  0.645060  0.831420  0.465060  Uiso  0.025330
    O1  O2-  1.0000  0.913510  0.865300  0.465060  Uiso  0.025330
    O1  O2-  1.0000  0.746710  0.026070  0.498880  Uiso  0.025330
    O1  O2-  1.0000  0.175930  0.226750  0.498880  Uiso  0.025330
    O1  O2-  1.0000  0.444380  0.260630  0.498880  Uiso  0.025330
    O1  O2-  1.0000  0.712830  0.294520  0.498880  Uiso  0.025330
    O1  O2-  1.0000  0.981280  0.328400  0.498880  Uiso  0.025330
    O1  O2-  1.0000  0.142040  0.495200  0.498880  Uiso  0.025330
    O1  O2-  1.0000  0.410490  0.529080  0.498880  Uiso  0.025330
    O1  O2-  1.0000  0.678940  0.562970  0.498880  Uiso  0.025330
    O1  O2-  1.0000  0.947390  0.596850  0.498880  Uiso  0.025330
    O1  O2-  1.0000  0.108160  0.763650  0.498880  Uiso  0.025330
    O1  O2-  1.0000  0.376610  0.797530  0.498880  Uiso  0.025330
    O1  O2-  1.0000  0.645060  0.831420  0.498880  Uiso  0.025330
    O1  O2-  1.0000  0.913510  0.865300  0.498880  Uiso  0.025330
    O1  O2-  1.0000  0.746710  0.026070  0.532700  Uiso  0.025330
    O1  O2-  1.0000  0.175930  0.226750  0.532700  Uiso  0.025330
    O1  O2-  1.0000  0.444380  0.260630  0.532700  Uiso  0.025330
    O1  O2-  1.0000  0.712830  0.294520  0.532700  Uiso  0.025330
    O1  O2-  1.0000  0.981280  0.328400  0.532700  Uiso  0.025330
    O1  O2-  1.0000  0.142040  0.495200  0.532700  Uiso  0.025330
    O1  O2-  1.0000  0.410490  0.529080  0.532700  Uiso  0.025330
    O1  O2-  1.0000  0.678940  0.562970  0.532700  Uiso  0.025330
    O1  O2-  1.0000  0.947390  0.596850  0.532700  Uiso  0.025330
    O1  O2-  1.0000  0.108160  0.763650  0.532700  Uiso  0.025330
    O1  O2-  1.0000  0.376610  0.797530  0.532700  Uiso  0.025330
    O1  O2-  1.0000  0.645060  0.831420  0.532700  Uiso  0.025330
    O1  O2-  1.0000  0.913510  0.865300  0.532700  Uiso  0.025330
    O1  O2-  1.0000  0.746710  0.026070  0.566530  Uiso  0.025330
    O1  O2-  1.0000  0.175930  0.226750  0.566530  Uiso  0.025330
    O1  O2-  1.0000  0.444380  0.260630  0.566530  Uiso  0.025330
    O1  O2-  1.0000  0.712830  0.294520  0.566530  Uiso  0.025330
    O1  O2-  1.0000  0.981280  0.328400  0.566530  Uiso  0.025330
    O1  O2-  1.0000  0.142040  0.495200  0.566530  Uiso  0.025330
    O1  O2-  1.0000  0.410490  0.529080  0.566530  Uiso  0.025330
    O1  O2-  1.0000  0.678940  0.562970  0.566530  Uiso  0.025330
    O1  O2-  1.0000  0.947390  0.596850  0.566530  Uiso  0.025330
    O1  O2-  1.0000  0.108160  0.763650  0.566530  Uiso  0.025330
    O1  O2-  1.0000  0.376610  0.797530  0.566530  Uiso  0.025330
    O1  O2-  1.0000  0.645060  0.831420  0.566530  Uiso  0.025330
    O1  O2-  1.0000  0.913510  0.865300  0.566530  Uiso  0.025330
    O1  O2-  1.0000  0.746710  0.026070  0.600350  Uiso  0.025330
    O1  O2-  1.0000  0.175930  0.226750  0.600350  Uiso  0.025330
    O1  O2-  1.0000  0.444380  0.260630  0.600350  Uiso  0.025330
    O1  O2-  1.0000  0.712830  0.294520  0.600350  Uiso  0.025330
    O1  O2-  1.0000  0.981280  0.328400  0.600350  Uiso  0.025330
    O1  O2-  1.0000  0.142040  0.495200  0.600350  Uiso  0.025330
    O1  O2-  1.0000  0.410490  0.529080  0.600350  Uiso  0.025330
    O1  O2-  1.0000  0.678940  0.562970  0.600350  Uiso  0.025330
    O1  O2-  1.0000  0.947390  0.596850  0.600350  Uiso  0.025330
    O1  O2-  1.0000  0.108160  0.763650  0.600350  Uiso  0.025330
    O1  O2-  1.0000  0.376610  0.797530  0.600350  Uiso  0.025330
    O1  O2-  1.0000  0.645060  0.831420  0.600350  Uiso  0.025330
    O1  O2-  1.0000  0.913510  0.865300  0.600350  Uiso  0.025330
    O1  O2-  1.0000  0.746710  0.026070  0.634170  Uiso  0.025330
    O1  O2-  1.0000  0.175930  0.226750  0.634170  Uiso  0.025330
    O1  O2-  1.0000  0.444380  0.260630  0.634170  Uiso  0.025330
    O1  O2-  1.0000  0.712830  0.294520  0.634170  Uiso  0.025330
    O1  O2-  1.0000  0.981280  0.328400  0.634170  Uiso  0.025330
    O1  O2-  1.0000  0.142040  0.495200  0.634170  Uiso  0.025330
    O1  O2-  1.0000  0.410490  0.529080  0.634170  Uiso  0.025330
    O1  O2-  1.0000  0.678940  0.562970  0.634170  Uiso  0.025330
    O1  O2-  1.0000  0.947390  0.596850  0.634170  Uiso  0.025330
    O1  O2-  1.0000  0.108160  0.763650  0.634170  Uiso  0.025330
    O1  O2-  1.0000  0.376610  0.797530  0.634170  Uiso  0.025330
    O1  O2-  1.0000  0.645060  0.831420  0.634170  Uiso  0.025330
    O1  O2-  1.0000  0.913510  0.865300  0.634170  Uiso  0.025330
    O1  O2-  1.0000  0.746710  0.026070  0.667990  Uiso  0.025330
    O1  O2-  1.0000  0.175930  0.226750  0.667990  Uiso  0.025330
    O1  O2-  1.0000  0.444380  0.260630  0.667990  Uiso  0.025330
    O1  O2-  1.0000  0.712830  0.294520  0.667990  Uiso  0.025330
    O1  O2-  1.0000  0.981280  0.328400  0.667990  Uiso  0.025330
    O1  O2-  1.0000  0.142040  0.495200  0.667990  Uiso  0.025330
    O1  O2-  1.0000  0.410490  0.529080  0.667990  Uiso  0.025330
    O1  O2-  1.0000  0.678940  0.562970  0.667990  Uiso  0.025330
    O1  O2-  1.0000  0.947390  0.596850  0.667990  Uiso  0.025330
    O1  O2-  1.0000  0.108160  0.763650  0.667990  Uiso  0.025330
    O1  O2-  1.0000  0.376610  0.797530  0.667990  Uiso  0.025330
    O1  O2-  1.0000  0.645060  0.831420  0.667990  Uiso  0.025330
    O1  O2-  1.0000  0.913510  0.865300  0.667990  Uiso  0.025330
    O1  O2-  1.0000  0.746710  0.026070  0.701820  Uiso  0.025330
    O1  O2-  1.0000  0.175930  0.226750  0.701820  Uiso  0.025330
    O1  O2-  1.0000  0.444380  0.260630  0.701820  Uiso  0.025330
    O1  O2-  1.0000  0.712830  0.294520  0.701820  Uiso  0.025330
    O1  O2-  1.0000  0.981280  0.328400  0.701820  Uiso  0.025330
    O1  O2-  1.0000  0.142040  0.495200  0.701820  Uiso  0.025330
    O1  O2-  1.0000  0.410490  0.529080  0.701820  Uiso  0.025330
    O1  O2-  1.0000  0.678940  0.562970  0.701820  Uiso  0.025330
    O1  O2-  1.0000  0.947390  0.596850  0.701820  Uiso  0.025330
    O1  O2-  1.0000  0.108160  0.763650  0.701820  Uiso  0.025330
    O1  O2-  1.0000  0.376610  0.797530  0.701820  Uiso  0.025330
    O1  O2-  1.0000  0.645060  0.831420  0.701820  Uiso  0.025330
    O1  O2-  1.0000  0.913510  0.865300  0.701820  Uiso  0.025330
    O1  O2-  1.0000  0.746710  0.026070  0.735640  Uiso  0.025330
    O1  O2-  1.0000  0.175930  0.226750  0.735640  Uiso  0.025330
    O1  O2-  1.0000  0.444380  0.260630  0.735640  Uiso  0.025330
    O1  O2-  1.0000  0.712830  0.294520  0.735640  Uiso  0.025330
    O1  O2-  1.0000  0.981280  0.328400  0.735640  Uiso  0.025330
    O1  O2-  1.0000  0.142040  0.495200  0.735640  Uiso  0.025330
    O1  O2-  1.0000  0.410490  0.529080  0.735640  Uiso  0.025330
    O1  O2-  1.0000  0.678940  0.562970  0.735640  Uiso  0.025330
    O1  O2-  1.0000  0.947390  0.596850  0.735640  Uiso  0.025330
    O1  O2-  1.0000  0.108160  0.763650  0.735640  Uiso  0.025330
    O1  O2-  1.0000  0.376610  0.797530  0.735640  Uiso  0.025330
    O1  O2-  1.0000  0.645060  0.831420  0.735640  Uiso  0.025330
    O1  O2-  1.0000  0.913510  0.865300  0.735640  Uiso  0.025330
    O1  O2-  1.0000  0.746710  0.026070  0.769460  Uiso  0.025330
    O1  O2-  1.0000  0.175930  0.226750  0.769460  Uiso  0.025330
    O1  O2-  1.0000  0.444380  0.260630  0.769460  Uiso  0.025330
    O1  O2-  1.0000  0.712830  0.294520  0.769460  Uiso  0.025330
    O1  O2-  1.0000  0.981280  0.328400  0.769460  Uiso  0.025330
    O1  O2-  1.0000  0.142040  0.495200  0.769460  Uiso  0.025330
    O1  O2-  1.0000  0.410490  0.529080  0.769460  Uiso  0.025330
    O1  O2-  1.0000  0.678940  0.562970  0.769460  Uiso  0.025330
    O1  O2-  1.0000  0.947390  0.596850  0.769460  Uiso  0.025330
    O1  O2-  1.0000  0.108160  0.763650  0.769460  Uiso  0.025330
    O1  O2-  1.0000  0.376610  0.797530  0.769460  Uiso  0.025330
    O1  O2-  1.0000  0.645060  0.831420  0.769460  Uiso  0.025330
    O1  O2-  1.0000  0.913510  0.865300  0.769460  Uiso  0.025330
    O1  O2-  1.0000  0.746710  0.026070  0.803280  Uiso  0.025330
    O1  O2-  1.0000  0.175930  0.226750  0.803280  Uiso  0.025330
    O1  O2-  1.0000  0.444380  0.260630  0.803280  Uiso  0.025330
    O1  O2-  1.0000  0.712830  0.294520  0.803280  Uiso  0.025330
    O1  O2-  1.0000  0.981280  0.328400  0.803280  Uiso  0.025330
    O1  O2-  1.0000  0.142040  0.495200  0.803280  Uiso  0.025330
    O1  O2-  1.0000  0.410490  0.529080  0.803280  Uiso  0.025330
    O1  O2-  1.0000  0.678940  0.562970  0.803280  Uiso  0.025330
    O1  O2-  1.0000  0.947390  0.596850  0.803280  Uiso  0.025330
    O1  O2-  1.0000  0.108160  0.763650  0.803280  Uiso  0.025330
    O1  O2-  1.0000  0.376610  0.797530  0.803280  Uiso  0.025330
    O1  O2-  1.0000  0.645060  0.831420  0.803280  Uiso  0.025330
    O1  O2-  1.0000  0.913510  0.865300  0.803280  Uiso  0.025330
    O1  O2-  1.0000  0.746710  0.026070  0.837110  Uiso  0.025330
    O1  O2-  1.0000  0.175930  0.226750  0.837110  Uiso  0.025330
    O1  O2-  1.0000  0.444380  0.260630  0.837110  Uiso  0.025330
    O1  O2-  1.0000  0.712830  0.294520  0.837110  Uiso  0.025330
    O1  O2-  1.0000  0.981280  0.328400  0.837110  Uiso  0.025330
    O1  O2-  1.0000  0.142040  0.495200  0.837110  Uiso  0.025330
    O1  O2-  1.0000  0.410490  0.529080  0.837110  Uiso  0.025330
    O1  O2-  1.0000  0.678940  0.562970  0.837110  Uiso  0.025330
    O1  O2-  1.0000  0.947390  0.596850  0.837110  Uiso  0.025330
    O1  O2-  1.0000  0.108160  0.763650  0.837110  Uiso  0.025330
    O1  O2-  1.0000  0.376610  0.797530  0.837110  Uiso  0.025330
    O1  O2-  1.0000  0.645060  0.831420  0.837110  Uiso  0.025330
    O1  O2-  1.0000  0.913510  0.865300  0.837110  Uiso  0.025330
    O1  O2-  1.0000  0.746710  0.026070  0.870930  Uiso  0.025330
    O1  O2-  1.0000  0.175930  0.226750  0.870930  Uiso  0.025330
    O1  O2-  1.0000  0.444380  0.260630  0.870930  Uiso  0.025330
    O1  O2-  1.0000  0.712830  0.294520  0.870930  Uiso  0.025330
    O1  O2-  1.0000  0.981280  0.328400  0.870930  Uiso  0.025330
    O1  O2-  1.0000  0.142040  0.495200  0.870930  Uiso  0.025330
    O1  O2-  1.0000  0.410490  0.529080  0.870930  Uiso  0.025330
    O1  O2-  1.0000  0.678940  0.562970  0.870930  Uiso  0.025330
    O1  O2-  1.0000  0.947390  0.596850  0.870930  Uiso  0.025330
    O1  O2-  1.0000  0.108160  0.763650  0.870930  Uiso  0.025330
    O1  O2-  1.0000  0.376610  0.797530  0.870930  Uiso  0.025330
    O1  O2-  1.0000  0.645060  0.831420  0.870930  Uiso  0.025330
    O1  O2-  1.0000  0.913510  0.865300  0.870930  Uiso  0.025330
    O1  O2-  1.0000  0.746710  0.026070  0.904750  Uiso  0.025330
    O1  O2-  1.0000  0.175930  0.226750  0.904750  Uiso  0.025330
    O1  O2-  1.0000  0.444380  0.260630  0.904750  Uiso  0.025330
    O1  O2-  1.0000  0.712830  0.294520  0.904750  Uiso  0.025330
    O1  O2-  1.0000  0.981280  0.328400  0.904750  Uiso  0.025330
    O1  O2-  1.0000  0.142040  0.495200  0.904750  Uiso  0.025330
    O1  O2-  1.0000  0.410490  0.529080  0.904750  Uiso  0.025330
    O1  O2-  1.0000  0.678940  0.562970  0.904750  Uiso  0.025330
    O1  O2-  1.0000  0.947390  0.596850  0.904750  Uiso  0.025330
    O1  O2-  1.0000  0.108160  0.763650  0.904750  Uiso  0.025330
    O1  O2-  1.0000  0.376610  0.797530  0.904750  Uiso  0.025330
    O1  O2-  1.0000  0.645060  0.831420  0.904750  Uiso  0.025330
    O1  O2-  1.0000  0.913510  0.865300  0.904750  Uiso  0.025330
    O1  O2-  1.0000  0.746710  0.026070  0.938570  Uiso  0.025330
    O1  O2-  1.0000  0.175930  0.226750  0.938570  Uiso  0.025330
    O1  O2-  1.0000  0.444380  0.260630  0.938570  Uiso  0.025330
    O1  O2-  1.0000  0.712830  0.294520  0.938570  Uiso  0.025330
    O1  O2-  1.0000  0.981280  0.328400  0.938570  Uiso  0.025330
    O1  O2-  1.0000  0.142040  0.495200  0.938570  Uiso  0.025330
    O1  O2-  1.0000  0.410490  0.529080  0.938570  Uiso  0.025330
    O1  O2-  1.0000  0.678940  0.562970  0.938570  Uiso  0.025330
    O1  O2-  1.0000  0.947390  0.596850  0.938570  Uiso  0.025330
    O1  O2-  1.0000  0.108160  0.763650  0.938570  Uiso  0.025330
    O1  O2-  1.0000  0.376610  0.797530  0.938570  Uiso  0.025330
    O1  O2-  1.0000  0.645060  0.831420  0.938570  Uiso  0.025330
    O1  O2-  1.0000  0.913510  0.865300  0.938570  Uiso  0.025330
    O1  O2-  1.0000  0.746710  0.026070  0.972400  Uiso  0.025330
    O1  O2-  1.0000  0.175930  0.226750  0.972400  Uiso  0.025330
    O1  O2-  1.0000  0.444380  0.260630  0.972400  Uiso  0.025330
    O1  O2-  1.0000  0.712830  0.294520  0.972400  Uiso  0.025330
    O1  O2-  1.0000  0.981280  0.328400  0.972400  Uiso  0.025330
    O1  O2-  1.0000  0.142040  0.495200  0.972400  Uiso  0.025330
    O1  O2-  1.0000  0.410490  0.529080  0.972400  Uiso  0.025330
    O1  O2-  1.0000  0.678940  0.562970  0.972400  Uiso  0.025330
    O1  O2-  1.0000  0.947390  0.596850  0.972400  Uiso  0.025330
    O1  O2-  1.0000  0.108160  0.763650  0.972400  Uiso  0.025330
    O1  O2-  1.0000  0.376610  0.797530  0.972400  Uiso  0.025330
    O1  O2-  1.0000  0.645060  0.831420  0.972400  Uiso  0.025330
    O1  O2-  1.0000  0.913510  0.865300  0.972400  Uiso  0.025330
    O1  O2-  1.0000  0.612480  0.009120  0.008460  Uiso  0.025330
    O1  O2-  1.0000  0.880930  0.043010  0.008460  Uiso  0.025330
    O1  O2-  1.0000  0.041700  0.209810  0.008460  Uiso  0.025330
    O1  O2-  1.0000  0.310150  0.243690  0.008460  Uiso  0.025330
    O1  O2-  1.0000  0.578600  0.277570  0.008460  Uiso  0.025330
    O1  O2-  1.0000  0.847050  0.311460  0.008460  Uiso  0.025330
    O1  O2-  1.0000  0.007820  0.478260  0.008460  Uiso  0.025330
    O1  O2-  1.0000  0.276270  0.512140  0.008460  Uiso  0.025330
    O1  O2-  1.0000  0.544720  0.546020  0.008460  Uiso  0.025330
    O1  O2-  1.0000  0.813170  0.579910  0.008460  Uiso  0.025330
    O1  O2-  1.0000  0.242380  0.780590  0.008460  Uiso  0.025330
    O1  O2-  1.0000  0.510830  0.814470  0.008460  Uiso  0.025330
    O1  O2-  1.0000  0.779290  0.848360  0.008460  Uiso  0.025330
    O1  O2-  1.0000  0.612480  0.009120  0.042280  Uiso  0.025330
    O1  O2-  1.0000  0.880930  0.043010  0.042280  Uiso  0.025330
    O1  O2-  1.0000  0.041700  0.209810  0.042280  Uiso  0.025330
    O1  O2-  1.0000  0.310150  0.243690  0.042280  Uiso  0.025330
    O1  O2-  1.0000  0.578600  0.277570  0.042280  Uiso  0.025330
    O1  O2-  1.0000  0.847050  0.311460  0.042280  Uiso  0.025330
    O1  O2-  1.0000  0.007820  0.478260  0.042280  Uiso  0.025330
    O1  O2-  1.0000  0.276270  0.512140  0.042280  Uiso  0.025330
    O1  O2-  1.0000  0.544720  0.546020  0.042280  Uiso  0.025330
    O1  O2-  1.0000  0.813170  0.579910  0.042280  Uiso  0.025330
    O1  O2-  1.0000  0.242380  0.780590  0.042280  Uiso  0.025330
    O1  O2-  1.0000  0.510830  0.814470  0.042280  Uiso  0.025330
    O1  O2-  1.0000  0.779290  0.848360  0.042280  Uiso  0.025330
    O1  O2-  1.0000  0.612480  0.009120  0.076100  Uiso  0.025330
    O1  O2-  1.0000  0.880930  0.043010  0.076100  Uiso  0.025330
    O1  O2-  1.0000  0.041700  0.209810  0.076100  Uiso  0.025330
    O1  O2-  1.0000  0.310150  0.243690  0.076100  Uiso  0.025330
    O1  O2-  1.0000  0.578600  0.277570  0.076100  Uiso  0.025330
    O1  O2-  1.0000  0.847050  0.311460  0.076100  Uiso  0.025330
    O1  O2-  1.0000  0.007820  0.478260  0.076100  Uiso  0.025330
    O1  O2-  1.0000  0.276270  0.512140  0.076100  Uiso  0.025330
    O1  O2-  1.0000  0.544720  0.546020  0.076100  Uiso  0.025330
    O1  O2-  1.0000  0.813170  0.579910  0.076100  Uiso  0.025330
    O1  O2-  1.0000  0.242380  0.780590  0.076100  Uiso  0.025330
    O1  O2-  1.0000  0.510830  0.814470  0.076100  Uiso  0.025330
    O1  O2-  1.0000  0.779290  0.848360  0.076100  Uiso  0.025330
    O1  O2-  1.0000  0.612480  0.009120  0.109920  Uiso  0.025330
    O1  O2-  1.0000  0.880930  0.043010  0.109920  Uiso  0.025330
    O1  O2-  1.0000  0.041700  0.209810  0.109920  Uiso  0.025330
    O1  O2-  1.0000  0.310150  0.243690  0.109920  Uiso  0.025330
    O1  O2-  1.0000  0.578600  0.277570  0.109920  Uiso  0.025330
    O1  O2-  1.0000  0.847050  0.311460  0.109920  Uiso  0.025330
    O1  O2-  1.0000  0.007820  0.478260  0.109920  Uiso  0.025330
    O1  O2-  1.0000  0.276270  0.512140  0.109920  Uiso  0.025330
    O1  O2-  1.0000  0.544720  0.546020  0.109920  Uiso  0.025330
    O1  O2-  1.0000  0.813170  0.579910  0.109920  Uiso  0.025330
    O1  O2-  1.0000  0.242380  0.780590  0.109920  Uiso  0.025330
    O1  O2-  1.0000  0.510830  0.814470  0.109920  Uiso  0.025330
    O1  O2-  1.0000  0.779290  0.848360  0.109920  Uiso  0.025330
    O1  O2-  1.0000  0.612480  0.009120  0.143750  Uiso  0.025330
    O1  O2-  1.0000  0.880930  0.043010  0.143750  Uiso  0.025330
    O1  O2-  1.0000  0.041700  0.209810  0.143750  Uiso  0.025330
    O1  O2-  1.0000  0.310150  0.243690  0.143750  Uiso  0.025330
    O1  O2-  1.0000  0.578600  0.277570  0.143750  Uiso  0.025330
    O1  O2-  1.0000  0.847050  0.311460  0.143750  Uiso  0.025330
    O1  O2-  1.0000  0.007820  0.478260  0.143750  Uiso  0.025330
    O1  O2-  1.0000  0.276270  0.512140  0.143750  Uiso  0.025330
    O1  O2-  1.0000  0.544720  0.546020  0.143750  Uiso  0.025330
    O1  O2-  1.0000  0.813170  0.579910  0.143750  Uiso  0.025330
    O1  O2-  1.0000  0.242380  0.780590  0.143750  Uiso  0.025330
    O1  O2-  1.0000  0.510830  0.814470  0.143750  Uiso  0.025330
    O1  O2-  1.0000  0.779290  0.848360  0.143750  Uiso  0.025330
    O1  O2-  1.0000  0.612480  0.009120  0.177570  Uiso  0.025330
    O1  O2-  1.0000  0.880930  0.043010  0.177570  Uiso  0.025330
    O1  O2-  1.0000  0.041700  0.209810  0.177570  Uiso  0.025330
    O1  O2-  1.0000  0.310150  0.243690  0.177570  Uiso  0.025330
    O1  O2-  1.0000  0.578600  0.277570  0.177570  Uiso  0.025330
    O1  O2-  1.0000  0.847050  0.311460  0.177570  Uiso  0.025330
    O1  O2-  1.0000  0.007820  0.478260  0.177570  Uiso  0.025330
    O1  O2-  1.0000  0.276270  0.512140  0.177570  Uiso  0.025330
    O1  O2-  1.0000  0.544720  0.546020  0.177570  Uiso  0.025330
    O1  O2-  1.0000  0.813170  0.579910  0.177570  Uiso  0.025330
    O1  O2-  1.0000  0.242380  0.780590  0.177570  Uiso  0.025330
    O1  O2-  1.0000  0.510830  0.814470  0.177570  Uiso  0.025330
    O1  O2-  1.0000  0.779290  0.848360  0.177570  Uiso  0.025330
    O1  O2-  1.0000  0.612480  0.009120  0.211390  Uiso  0.025330
    O1  O2-  1.0000  0.880930  0.043010  0.211390  Uiso  0.025330
    O1  O2-  1.0000  0.041700  0.209810  0.211390  Uiso  0.025330
    O1  O2-  1.0000  0.310150  0.243690  0.211390  Uiso  0.025330
    O1  O2-  1.0000  0.578600  0.277570  0.211390  Uiso  0.025330
    O1  O2-  1.0000  0.847050  0.311460  0.211390  Uiso  0.025330
    O1  O2-  1.0000  0.007820  0.478260  0.211390  Uiso  0.025330
    O1  O2-  1.0000  0.276270  0.512140  0.211390  Uiso  0.025330
    O1  O2-  1.0000  0.544720  0.546020  0.211390  Uiso  0.025330
    O1  O2-  1.0000  0.813170  0.579910  0.211390  Uiso  0.025330
    O1  O2-  1.0000  0.242380  0.780590  0.211390  Uiso  0.025330
    O1  O2-  1.0000  0.510830  0.814470  0.211390  Uiso  0.025330
    O1  O2-  1.0000  0.779290  0.848360  0.211390  Uiso  0.025330
    O1  O2-  1.0000  0.612480  0.009120  0.245210  Uiso  0.025330
    O1  O2-  1.0000  0.880930  0.043010  0.245210  Uiso  0.025330
    O1  O2-  1.0000  0.041700  0.209810  0.245210  Uiso  0.025330
    O1  O2-  1.0000  0.310150  0.243690  0.245210  Uiso  0.025330
    O1  O2-  1.0000  0.578600  0.277570  0.245210  Uiso  0.025330
    O1  O2-  1.0000  0.847050  0.311460  0.245210  Uiso  0.025330
    O1  O2-  1.0000  0.007820  0.478260  0.245210  Uiso  0.025330
    O1  O2-  1.0000  0.276270  0.512140  0.245210  Uiso  0.025330
    O1  O2-  1.0000  0.544720  0.546020  0.245210  Uiso  0.025330
    O1  O2-  1.0000  0.813170  0.579910  0.245210  Uiso  0.025330
    O1  O2-  1.0000  0.242380  0.780590  0.245210  Uiso  0.025330
    O1  O2-  1.0000  0.510830  0.814470  0.245210  Uiso  0.025330
    O1  O2-  1.0000  0.779290  0.848360  0.245210  Uiso  0.025330
    O1  O2-  1.0000  0.612480  0.009120  0.279040  Uiso  0.025330
    O1  O2-  1.0000  0.880930  0.043010  0.279040  Uiso  0.025330
    O1  O2-  1.0000  0.041700  0.209810  0.279040  Uiso  0.025330
    O1  O2-  1.0000  0.310150  0.243690  0.279040  Uiso  0.025330
    O1  O2-  1.0000  0.578600  0.277570  0.279040  Uiso  0.025330
    O1  O2-  1.0000  0.847050  0.311460  0.279040  Uiso  0.025330
    O1  O2-  1.0000  0.007820  0.478260  0.279040  Uiso  0.025330
    O1  O2-  1.0000  0.276270  0.512140  0.279040  Uiso  0.025330
    O1  O2-  1.0000  0.544720  0.546020  0.279040  Uiso  0.025330
    O1  O2-  1.0000  0.813170  0.579910  0.279040  Uiso  0.025330
    O1  O2-  1.0000  0.242380  0.780590  0.279040  Uiso  0.025330
    O1  O2-  1.0000  0.510830  0.814470  0.279040  Uiso  0.025330
    O1  O2-  1.0000  0.779290  0.848360  0.279040  Uiso  0.025330
    O1  O2-  1.0000  0.612480  0.009120  0.312860  Uiso  0.025330
    O1  O2-  1.0000  0.880930  0.043010  0.312860  Uiso  0.025330
    O1  O2-  1.0000  0.041700  0.209810  0.312860  Uiso  0.025330
    O1  O2-  1.0000  0.310150  0.243690  0.312860  Uiso  0.025330
    O1  O2-  1.0000  0.578600  0.277570  0.312860  Uiso  0.025330
    O1  O2-  1.0000  0.847050  0.311460  0.312860  Uiso  0.025330
    O1  O2-  1.0000  0.007820  0.478260  0.312860  Uiso  0.025330
    O1  O2-  1.0000  0.276270  0.512140  0.312860  Uiso  0.025330
    O1  O2-  1.0000  0.544720  0.546020  0.312860  Uiso  0.025330
    O1  O2-  1.0000  0.813170  0.579910  0.312860  Uiso  0.025330
    O1  O2-  1.0000  0.242380  0.780590  0.312860  Uiso  0.025330
    O1  O2-  1.0000  0.510830  0.814470  0.312860  Uiso  0.025330
    O1  O2-  1.0000  0.779290  0.848360  0.312860  Uiso  0.025330
    O1  O2-  1.0000  0.612480  0.009120  0.346680  Uiso  0.025330
    O1  O2-  1.0000  0.880930  0.043010  0.346680  Uiso  0.025330
    O1  O2-  1.0000  0.041700  0.209810  0.346680  Uiso  0.025330
    O1  O2-  1.0000  0.310150  0.243690  0.346680  Uiso  0.025330
    O1  O2-  1.0000  0.578600  0.277570  0.346680  Uiso  0.025330
    O1  O2-  1.0000  0.847050  0.311460  0.346680  Uiso  0.025330
    O1  O2-  1.0000  0.007820  0.478260  0.346680  Uiso  0.025330
    O1  O2-  1.0000  0.276270  0.512140  0.346680  Uiso  0.025330
    O1  O2-  1.0000  0.544720  0.546020  0.346680  Uiso  0.025330
    O1  O2-  1.0000  0.813170  0.579910  0.346680  Uiso  0.025330
    O1  O2-  1.0000  0.242380  0.780590  0.346680  Uiso  0.025330
    O1  O2-  1.0000  0.510830  0.814470  0.346680  Uiso  0.025330
    O1  O2-  1.0000  0.779290  0.848360  0.346680  Uiso  0.025330
    O1  O2-  1.0000  0.612480  0.009120  0.380500  Uiso  0.025330
    O1  O2-  1.0000  0.880930  0.043010  0.380500  Uiso  0.025330
    O1  O2-  1.0000  0.041700  0.209810  0.380500  Uiso  0.025330
    O1  O2-  1.0000  0.310150  0.243690  0.380500  Uiso  0.025330
    O1  O2-  1.0000  0.578600  0.277570  0.380500  Uiso  0.025330
    O1  O2-  1.0000  0.847050  0.311460  0.380500  Uiso  0.025330
    O1  O2-  1.0000  0.007820  0.478260  0.380500  Uiso  0.025330
    O1  O2-  1.0000  0.276270  0.512140  0.380500  Uiso  0.025330
    O1  O2-  1.0000  0.544720  0.546020  0.380500  Uiso  0.025330
    O1  O2-  1.0000  0.813170  0.579910  0.380500  Uiso  0.025330
    O1  O2-  1.0000  0.242380  0.780590  0.380500  Uiso  0.025330
    O1  O2-  1.0000  0.510830  0.814470  0.380500  Uiso  0.025330
    O1  O2-  1.0000  0.779290  0.848360  0.380500  Uiso  0.025330
    O1  O2-  1.0000  0.612480  0.009120  0.414330  Uiso  0.025330
    O1  O2-  1.0000  0.880930  0.043010  0.414330  Uiso  0.025330
    O1  O2-  1.0000  0.041700  0.209810  0.414330  Uiso  0.025330
    O1  O2-  1.0000  0.310150  0.243690  0.414330  Uiso  0.025330
    O1  O2-  1.0000  0.578600  0.277570  0.414330  Uiso  0.025330
    O1  O2-  1.0000  0.847050  0.311460  0.414330  Uiso  0.025330
    O1  O2-  1.0000  0.007820  0.478260  0.414330  Uiso  0.025330
    O1  O2-  1.0000  0.276270  0.512140  0.414330  Uiso  0.025330
    O1  O2-  1.0000  0.544720  0.546020  0.414330  Uiso  0.025330
    O1  O2-  1.0000  0.813170  0.579910  0.414330  Uiso  0.025330
    O1  O2-  1.0000  0.242380  0.780590  0.414330  Uiso  0.025330
    O1  O2-  1.0000  0.510830  0.814470  0.414330  Uiso  0.025330
    O1  O2-  1.0000  0.779290  0.848360  0.414330  Uiso  0.025330
    O1  O2-  1.0000  0.612480  0.009120  0.448150  Uiso  0.025330
    O1  O2-  1.0000  0.880930  0.043010  0.448150  Uiso  0.025330
    O1  O2-  1.0000  0.041700  0.209810  0.448150  Uiso  0.025330
    O1  O2-  1.0000  0.310150  0.243690  0.448150  Uiso  0.025330
    O1  O2-  1.0000  0.578600  0.277570  0.448150  Uiso  0.025330
    O1  O2-  1.0000  0.847050  0.311460  0.448150  Uiso  0.025330
    O1  O2-  1.0000  0.007820  0.478260  0.448150  Uiso  0.025330
    O1  O2-  1.0000  0.276270  0.512140  0.448150  Uiso  0.025330
    O1  O2-  1.0000  0.544720  0.546020  0.448150  Uiso  0.025330
    O1  O2-  1.0000  0.813170  0.579910  0.448150  Uiso  0.025330
    O1  O2-  1.0000  0.242380  0.780590  0.448150  Uiso  0.025330
    O1  O2-  1.0000  0.510830  0.814470  0.448150  Uiso  0.025330
    O1  O2-  1.0000  0.779290  0.848360  0.448150  Uiso  0.025330
    O1  O2-  1.0000  0.612480  0.009120  0.481970  Uiso  0.025330
    O1  O2-  1.0000  0.880930  0.043010  0.481970  Uiso  0.025330
    O1  O2-  1.0000  0.041700  0.209810  0.481970  Uiso  0.025330
    O1  O2-  1.0000  0.310150  0.243690  0.481970  Uiso  0.025330
    O1  O2-  1.0000  0.578600  0.277570  0.481970  Uiso  0.025330
    O1  O2-  1.0000  0.847050  0.311460  0.481970  Uiso  0.025330
    O1  O2-  1.0000  0.007820  0.478260  0.481970  Uiso  0.025330
    O1  O2-  1.0000  0.276270  0.512140  0.481970  Uiso  0.025330
    O1  O2-  1.0000  0.544720  0.546020  0.481970  Uiso  0.025330
    O1  O2-  1.0000  0.813170  0.579910  0.481970  Uiso  0.025330
    O1  O2-  1.0000  0.242380  0.780590  0.481970  Uiso  0.025330
    O1  O2-  1.0000  0.510830  0.814470  0.481970  Uiso  0.025330
    O1  O2-  1.0000  0.779290  0.848360  0.481970  Uiso  0.025330
    O1  O2-  1.0000  0.612480  0.009120  0.515790  Uiso  0.025330
    O1  O2-  1.0000  0.880930  0.043010  0.515790  Uiso  0.025330
    O1  O2-  1.0000  0.041700  0.209810  0.515790  Uiso  0.025330
    O1  O2-  1.0000  0.310150  0.243690  0.515790  Uiso  0.025330
    O1  O2-  1.0000  0.578600  0.277570  0.515790  Uiso  0.025330
    O1  O2-  1.0000  0.847050  0.311460  0.515790  Uiso  0.025330
    O1  O2-  1.0000  0.007820  0.478260  0.515790  Uiso  0.025330
    O1  O2-  1.0000  0.276270  0.512140  0.515790  Uiso  0.025330
    O1  O2-  1.0000  0.544720  0.546020  0.515790  Uiso  0.025330
    O1  O2-  1.0000  0.813170  0.579910  0.515790  Uiso  0.025330
    O1  O2-  1.0000  0.242380  0.780590  0.515790  Uiso  0.025330
    O1  O2-  1.0000  0.510830  0.814470  0.515790  Uiso  0.025330
    O1  O2-  1.0000  0.779290  0.848360  0.515790  Uiso  0.025330
    O1  O2-  1.0000  0.612480  0.009120  0.549620  Uiso  0.025330
    O1  O2-  1.0000  0.880930  0.043010  0.549620  Uiso  0.025330
    O1  O2-  1.0000  0.041700  0.209810  0.549620  Uiso  0.025330
    O1  O2-  1.0000  0.310150  0.243690  0.549620  Uiso  0.025330
    O1  O2-  1.0000  0.578600  0.277570  0.549620  Uiso  0.025330
    O1  O2-  1.0000  0.847050  0.311460  0.549620  Uiso  0.025330
    O1  O2-  1.0000  0.007820  0.478260  0.549620  Uiso  0.025330
    O1  O2-  1.0000  0.276270  0.512140  0.549620  Uiso  0.025330
    O1  O2-  1.0000  0.544720  0.546020  0.549620  Uiso  0.025330
    O1  O2-  1.0000  0.813170  0.579910  0.549620  Uiso  0.025330
    O1  O2-  1.0000  0.242380  0.780590  0.549620  Uiso  0.025330
    O1  O2-  1.0000  0.510830  0.814470  0.549620  Uiso  0.025330
    O1  O2-  1.0000  0.779290  0.848360  0.549620  Uiso  0.025330
    O1  O2-  1.0000  0.612480  0.009120  0.583440  Uiso  0.025330
    O1  O2-  1.0000  0.880930  0.043010  0.583440  Uiso  0.025330
    O1  O2-  1.0000  0.041700  0.209810  0.583440  Uiso  0.025330
    O1  O2-  1.0000  0.310150  0.243690  0.583440  Uiso  0.025330
    O1  O2-  1.0000  0.578600  0.277570  0.583440  Uiso  0.025330
    O1  O2-  1.0000  0.847050  0.311460  0.583440  Uiso  0.025330
    O1  O2-  1.0000  0.007820  0.478260  0.583440  Uiso  0.025330
    O1  O2-  1.0000  0.276270  0.512140  0.583440  Uiso  0.025330
    O1  O2-  1.0000  0.544720  0.546020  0.583440  Uiso  0.025330
    O1  O2-  1.0000  0.813170  0.579910  0.583440  Uiso  0.025330
    O1  O2-  1.0000  0.242380  0.780590  0.583440  Uiso  0.025330
    O1  O2-  1.0000  0.510830  0.814470  0.583440  Uiso  0.025330
    O1  O2-  1.0000  0.779290  0.848360  0.583440  Uiso  0.025330
    O1  O2-  1.0000  0.612480  0.009120  0.617260  Uiso  0.025330
    O1  O2-  1.0000  0.880930  0.043010  0.617260  Uiso  0.025330
    O1  O2-  1.0000  0.041700  0.209810  0.617260  Uiso  0.025330
    O1  O2-  1.0000  0.310150  0.243690  0.617260  Uiso  0.025330
    O1  O2-  1.0000  0.578600  0.277570  0.617260  Uiso  0.025330
    O1  O2-  1.0000  0.847050  0.311460  0.617260  Uiso  0.025330
    O1  O2-  1.0000  0.007820  0.478260  0.617260  Uiso  0.025330
    O1  O2-  1.0000  0.276270  0.512140  0.617260  Uiso  0.025330
    O1  O2-  1.0000  0.544720  0.546020  0.617260  Uiso  0.025330
    O1  O2-  1.0000  0.813170  0.579910  0.617260  Uiso  0.025330
    O1  O2-  1.0000  0.242380  0.780590  0.617260  Uiso  0.025330
    O1  O2-  1.0000  0.510830  0.814470  0.617260  Uiso  0.025330
    O1  O2-  1.0000  0.779290  0.848360  0.617260  Uiso  0.025330
    O1  O2-  1.0000  0.612480  0.009120  0.651080  Uiso  0.025330
    O1  O2-  1.0000  0.880930  0.043010  0.651080  Uiso  0.025330
    O1  O2-  1.0000  0.041700  0.209810  0.651080  Uiso  0.025330
    O1  O2-  1.0000  0.310150  0.243690  0.651080  Uiso  0.025330
    O1  O2-  1.0000  0.578600  0.277570  0.651080  Uiso  0.025330
    O1  O2-  1.0000  0.847050  0.311460  0.651080  Uiso  0.025330
    O1  O2-  1.0000  0.007820  0.478260  0.651080  Uiso  0.025330
    O1  O2-  1.0000  0.276270  0.512140  0.651080  Uiso  0.025330
    O1  O2-  1.0000  0.544720  0.546020  0.651080  Uiso  0.025330
    O1  O2-  1.0000  0.813170  0.579910  0.651080  Uiso  0.025330
    O1  O2-  1.0000  0.242380  0.780590  0.651080  Uiso  0.025330
    O1  O2-  1.0000  0.510830  0.814470  0.651080  Uiso  0.025330
    O1  O2-  1.0000  0.779290  0.848360  0.651080  Uiso  0.025330
    O1  O2-  1.0000  0.612480  0.009120  0.684910  Uiso  0.025330
    O1  O2-  1.0000  0.880930  0.043010  0.684910  Uiso  0.025330
    O1  O2-  1.0000  0.041700  0.209810  0.684910  Uiso  0.025330
    O1  O2-  1.0000  0.310150  0.243690  0.684910  Uiso  0.025330
    O1  O2-  1.0000  0.578600  0.277570  0.684910  Uiso  0.025330
    O1  O2-  1.0000  0.847050  0.311460  0.684910  Uiso  0.025330
    O1  O2-  1.0000  0.007820  0.478260  0.684910  Uiso  0.025330
    O1  O2-  1.0000  0.276270  0.512140  0.684910  Uiso  0.025330
    O1  O2-  1.0000  0.544720  0.546020  0.684910  Uiso  0.025330
    O1  O2-  1.0000  0.813170  0.579910  0.684910  Uiso  0.025330
    O1  O2-  1.0000  0.242380  0.780590  0.684910  Uiso  0.025330
    O1  O2-  1.0000  0.510830  0.814470  0.684910  Uiso  0.025330
    O1  O2-  1.0000  0.779290  0.848360  0.684910  Uiso  0.025330
    O1  O2-  1.0000  0.612480  0.009120  0.718730  Uiso  0.025330
    O1  O2-  1.0000  0.880930  0.043010  0.718730  Uiso  0.025330
    O1  O2-  1.0000  0.041700  0.209810  0.718730  Uiso  0.025330
    O1  O2-  1.0000  0.310150  0.243690  0.718730  Uiso  0.025330
    O1  O2-  1.0000  0.578600  0.277570  0.718730  Uiso  0.025330
    O1  O2-  1.0000  0.847050  0.311460  0.718730  Uiso  0.025330
    O1  O2-  1.0000  0.007820  0.478260  0.718730  Uiso  0.025330
    O1  O2-  1.0000  0.276270  0.512140  0.718730  Uiso  0.025330
    O1  O2-  1.0000  0.544720  0.546020  0.718730  Uiso  0.025330
    O1  O2-  1.0000  0.813170  0.579910  0.718730  Uiso  0.025330
    O1  O2-  1.0000  0.242380  0.780590  0.718730  Uiso  0.025330
    O1  O2-  1.0000  0.510830  0.814470  0.718730  Uiso  0.025330
    O1  O2-  1.0000  0.779290  0.848360  0.718730  Uiso  0.025330
    O1  O2-  1.0000  0.612480  0.009120  0.752550  Uiso  0.025330
    O1  O2-  1.0000  0.880930  0.043010  0.752550  Uiso  0.025330
    O1  O2-  1.0000  0.041700  0.209810  0.752550  Uiso  0.025330
    O1  O2-  1.0000  0.310150  0.243690  0.752550  Uiso  0.025330
    O1  O2-  1.0000  0.578600  0.277570  0.752550  Uiso  0.025330
    O1  O2-  1.0000  0.847050  0.311460  0.752550  Uiso  0.025330
    O1  O2-  1.0000  0.007820  0.478260  0.752550  Uiso  0.025330
    O1  O2-  1.0000  0.276270  0.512140  0.752550  Uiso  0.025330
    O1  O2-  1.0000  0.544720  0.546020  0.752550  Uiso  0.025330
    O1  O2-  1.0000  0.813170  0.579910  0.752550  Uiso  0.025330
    O1  O2-  1.0000  0.242380  0.780590  0.752550  Uiso  0.025330
    O1  O2-  1.0000  0.510830  0.814470  0.752550  Uiso  0.025330
    O1  O2-  1.0000  0.779290  0.848360  0.752550  Uiso  0.025330
    O1  O2-  1.0000  0.612480  0.009120  0.786370  Uiso  0.025330
    O1  O2-  1.0000  0.880930  0.043010  0.786370  Uiso  0.025330
    O1  O2-  1.0000  0.041700  0.209810  0.786370  Uiso  0.025330
    O1  O2-  1.0000  0.310150  0.243690  0.786370  Uiso  0.025330
    O1  O2-  1.0000  0.578600  0.277570  0.786370  Uiso  0.025330
    O1  O2-  1.0000  0.847050  0.311460  0.786370  Uiso  0.025330
    O1  O2-  1.0000  0.007820  0.478260  0.786370  Uiso  0.025330
    O1  O2-  1.0000  0.276270  0.512140  0.786370  Uiso  0.025330
    O1  O2-  1.0000  0.544720  0.546020  0.786370  Uiso  0.025330
    O1  O2-  1.0000  0.813170  0.579910  0.786370  Uiso  0.025330
    O1  O2-  1.0000  0.242380  0.780590  0.786370  Uiso  0.025330
    O1  O2-  1.0000  0.510830  0.814470  0.786370  Uiso  0.025330
    O1  O2-  1.0000  0.779290  0.848360  0.786370  Uiso  0.025330
    O1  O2-  1.0000  0.612480  0.009120  0.820200  Uiso  0.025330
    O1  O2-  1.0000  0.880930  0.043010  0.820200  Uiso  0.025330
    O1  O2-  1.0000  0.041700  0.209810  0.820200  Uiso  0.025330
    O1  O2-  1.0000  0.310150  0.243690  0.820200  Uiso  0.025330
    O1  O2-  1.0000  0.578600  0.277570  0.820200  Uiso  0.025330
    O1  O2-  1.0000  0.847050  0.311460  0.820200  Uiso  0.025330
    O1  O2-  1.0000  0.007820  0.478260  0.820200  Uiso  0.025330
    O1  O2-  1.0000  0.276270  0.512140  0.820200  Uiso  0.025330
    O1  O2-  1.0000  0.544720  0.546020  0.820200  Uiso  0.025330
    O1  O2-  1.0000  0.813170  0.579910  0.820200  Uiso  0.025330
    O1  O2-  1.0000  0.242380  0.780590  0.820200  Uiso  0.025330
    O1  O2-  1.0000  0.510830  0.814470  0.820200  Uiso  0.025330
    O1  O2-  1.0000  0.779290  0.848360  0.820200  Uiso  0.025330
    O1  O2-  1.0000  0.612480  0.009120  0.854020  Uiso  0.025330
    O1  O2-  1.0000  0.880930  0.043010  0.854020  Uiso  0.025330
    O1  O2-  1.0000  0.041700  0.209810  0.854020  Uiso  0.025330
    O1  O2-  1.0000  0.310150  0.243690  0.854020  Uiso  0.025330
    O1  O2-  1.0000  0.578600  0.277570  0.854020  Uiso  0.025330
    O1  O2-  1.0000  0.847050  0.311460  0.854020  Uiso  0.025330
    O1  O2-  1.0000  0.007820  0.478260  0.854020  Uiso  0.025330
    O1  O2-  1.0000  0.276270  0.512140  0.854020  Uiso  0.025330
    O1  O2-  1.0000  0.544720  0.546020  0.854020  Uiso  0.025330
    O1  O2-  1.0000  0.813170  0.579910  0.854020  Uiso  0.025330
    O1  O2-  1.0000  0.242380  0.780590  0.854020  Uiso  0.025330
    O1  O2-  1.0000  0.510830  0.814470  0.854020  Uiso  0.025330
    O1  O2-  1.0000  0.779290  0.848360  0.854020  Uiso  0.025330
    O1  O2-  1.0000  0.612480  0.009120  0.887840  Uiso  0.025330
    O1  O2-  1.0000  0.880930  0.043010  0.887840  Uiso  0.025330
    O1  O2-  1.0000  0.041700  0.209810  0.887840  Uiso  0.025330
    O1  O2-  1.0000  0.310150  0.243690  0.887840  Uiso  0.025330
    O1  O2-  1.0000  0.578600  0.277570  0.887840  Uiso  0.025330
    O1  O2-  1.0000  0.847050  0.311460  0.887840  Uiso  0.025330
    O1  O2-  1.0000  0.007820  0.478260  0.887840  Uiso  0.025330
    O1  O2-  1.0000  0.276270  0.512140  0.887840  Uiso  0.025330
    O1  O2-  1.0000  0.544720  0.546020  0.887840  Uiso  0.025330
    O1  O2-  1.0000  0.813170  0.579910  0.887840  Uiso  0.025330
    O1  O2-  1.0000  0.242380  0.780590  0.887840  Uiso  0.025330
    O1  O2-  1.0000  0.510830  0.814470  0.887840  Uiso  0.025330
    O1  O2-  1.0000  0.779290  0.848360  0.887840  Uiso  0.025330
    O1  O2-  1.0000  0.612480  0.009120  0.921660  Uiso  0.025330
    O1  O2-  1.0000  0.880930  0.043010  0.921660  Uiso  0.025330
    O1  O2-  1.0000  0.041700  0.209810  0.921660  Uiso  0.025330
    O1  O2-  1.0000  0.310150  0.243690  0.921660  Uiso  0.025330
    O1  O2-  1.0000  0.578600  0.277570  0.921660  Uiso  0.025330
    O1  O2-  1.0000  0.847050  0.311460  0.921660  Uiso  0.025330
    O1  O2-  1.0000  0.007820  0.478260  0.921660  Uiso  0.025330
    O1  O2-  1.0000  0.276270  0.512140  0.921660  Uiso  0.025330
    O1  O2-  1.0000  0.544720  0.546020  0.921660  Uiso  0.025330
    O1  O2-  1.0000  0.813170  0.579910  0.921660  Uiso  0.025330
    O1  O2-  1.0000  0.242380  0.780590  0.921660  Uiso  0.025330
    O1  O2-  1.0000  0.510830  0.814470  0.921660  Uiso  0.025330
    O1  O2-  1.0000  0.779290  0.848360  0.921660  Uiso  0.025330
    O1  O2-  1.0000  0.612480  0.009120  0.955490  Uiso  0.025330
    O1  O2-  1.0000  0.880930  0.043010  0.955490  Uiso  0.025330
    O1  O2-  1.0000  0.041700  0.209810  0.955490  Uiso  0.025330
    O1  O2-  1.0000  0.310150  0.243690  0.955490  Uiso  0.025330
    O1  O2-  1.0000  0.578600  0.277570  0.955490  Uiso  0.025330
    O1  O2-  1.0000  0.847050  0.311460  0.955490  Uiso  0.025330
    O1  O2-  1.0000  0.007820  0.478260  0.955490  Uiso  0.025330
    O1  O2-  1.0000  0.276270  0.512140  0.955490  Uiso  0.025330
    O1  O2-  1.0000  0.544720  0.546020  0.955490  Uiso  0.025330
    O1  O2-  1.0000  0.813170  0.579910  0.955490  Uiso  0.025330
    O1  O2-  1.0000  0.242380  0.780590  0.955490  Uiso  0.025330
    O1  O2-  1.0000  0.510830  0.814470  0.955490  Uiso  0.025330
    O1  O2-  1.0000  0.779290  0.848360  0.955490  Uiso  0.025330
    O1  O2-  1.0000  0.612480  0.009120  0.989310  Uiso  0.025330
    O1  O2-  1.0000  0.880930  0.043010  0.989310  Uiso  0.025330
    O1  O2-  1.0000  0.041700  0.209810  0.989310  Uiso  0.025330
    O1  O2-  1.0000  0.310150  0.243690  0.989310  Uiso  0.025330
    O1  O2-  1.0000  0.578600  0.277570  0.989310  Uiso  0.025330
    O1  O2-  1.0000  0.847050  0.311460  0.989310  Uiso  0.025330
    O1  O2-  1.0000  0.007820  0.478260  0.989310  Uiso  0.025330
    O1  O2-  1.0000  0.276270  0.512140  0.989310  Uiso  0.025330
    O1  O2-  1.0000  0.544720  0.546020  0.989310  Uiso  0.025330
    O1  O2-  1.0000  0.813170  0.579910  0.989310  Uiso  0.025330
    O1  O2-  1.0000  0.242380  0.780590  0.989310  Uiso  0.025330
    O1  O2-  1.0000  0.510830  0.814470  0.989310  Uiso  0.025330
    O1  O2-  1.0000  0.779290  0.848360  0.989310  Uiso  0.025330
    O1  O2-  1.0000  0.746710  0.026070  0.008460  Uiso  0.025330
    O1  O2-  1.0000  0.175930  0.226750  0.008460  Uiso  0.025330
    O1  O2-  1.0000  0.444380  0.260630  0.008460  Uiso  0.025330
    O1  O2-  1.0000  0.712830  0.294520  0.008460  Uiso  0.025330
    O1  O2-  1.0000  0.981280  0.328400  0.008460  Uiso  0.025330
    O1  O2-  1.0000  0.142040  0.495200  0.008460  Uiso  0.025330
    O1  O2-  1.0000  0.410490  0.529080  0.008460  Uiso  0.025330
    O1  O2-  1.0000  0.678940  0.562970  0.008460  Uiso  0.025330
    O1  O2-  1.0000  0.947390  0.596850  0.008460  Uiso  0.025330
    O1  O2-  1.0000  0.108160  0.763650  0.008460  Uiso  0.025330
    O1  O2-  1.0000  0.376610  0.797530  0.008460  Uiso  0.025330
    O1  O2-  1.0000  0.645060  0.831420  0.008460  Uiso  0.025330
    O1  O2-  1.0000  0.913510  0.865300  0.008460  Uiso  0.025330
    O1  O2-  1.0000  0.746710  0.026070  0.042280  Uiso  0.025330
    O1  O2-  1.0000  0.175930  0.226750  0.042280  Uiso  0.025330
    O1  O2-  1.0000  0.444380  0.260630  0.042280  Uiso  0.025330
    O1  O2-  1.0000  0.712830  0.294520  0.042280  Uiso  0.025330
    O1  O2-  1.0000  0.981280  0.328400  0.042280  Uiso  0.025330
    O1  O2-  1.0000  0.142040  0.495200  0.042280  Uiso  0.025330
    O1  O2-  1.0000  0.410490  0.529080  0.042280  Uiso  0.025330
    O1  O2-  1.0000  0.678940  0.562970  0.042280  Uiso  0.025330
    O1  O2-  1.0000  0.947390  0.596850  0.042280  Uiso  0.025330
    O1  O2-  1.0000  0.108160  0.763650  0.042280  Uiso  0.025330
    O1  O2-  1.0000  0.376610  0.797530  0.042280  Uiso  0.025330
    O1  O2-  1.0000  0.645060  0.831420  0.042280  Uiso  0.025330
    O1  O2-  1.0000  0.913510  0.865300  0.042280  Uiso  0.025330
    O1  O2-  1.0000  0.746710  0.026070  0.076100  Uiso  0.025330
    O1  O2-  1.0000  0.175930  0.226750  0.076100  Uiso  0.025330
    O1  O2-  1.0000  0.444380  0.260630  0.076100  Uiso  0.025330
    O1  O2-  1.0000  0.712830  0.294520  0.076100  Uiso  0.025330
    O1  O2-  1.0000  0.981280  0.328400  0.076100  Uiso  0.025330
    O1  O2-  1.0000  0.142040  0.495200  0.076100  Uiso  0.025330
    O1  O2-  1.0000  0.410490  0.529080  0.076100  Uiso  0.025330
    O1  O2-  1.0000  0.678940  0.562970  0.076100  Uiso  0.025330
    O1  O2-  1.0000  0.947390  0.596850  0.076100  Uiso  0.025330
    O1  O2-  1.0000  0.108160  0.763650  0.076100  Uiso  0.025330
    O1  O2-  1.0000  0.376610  0.797530  0.076100  Uiso  0.025330
    O1  O2-  1.0000  0.645060  0.831420  0.076100  Uiso  0.025330
    O1  O2-  1.0000  0.913510  0.865300  0.076100  Uiso  0.025330
    O1  O2-  1.0000  0.746710  0.026070  0.109920  Uiso  0.025330
    O1  O2-  1.0000  0.175930  0.226750  0.109920  Uiso  0.025330
    O1  O2-  1.0000  0.444380  0.260630  0.109920  Uiso  0.025330
    O1  O2-  1.0000  0.712830  0.294520  0.109920  Uiso  0.025330
    O1  O2-  1.0000  0.981280  0.328400  0.109920  Uiso  0.025330
    O1  O2-  1.0000  0.142040  0.495200  0.109920  Uiso  0.025330
    O1  O2-  1.0000  0.410490  0.529080  0.109920  Uiso  0.025330
    O1  O2-  1.0000  0.678940  0.562970  0.109920  Uiso  0.025330
    O1  O2-  1.0000  0.947390  0.596850  0.109920  Uiso  0.025330
    O1  O2-  1.0000  0.108160  0.763650  0.109920  Uiso  0.025330
    O1  O2-  1.0000  0.376610  0.797530  0.109920  Uiso  0.025330
    O1  O2-  1.0000  0.645060  0.831420  0.109920  Uiso  0.025330
    O1  O2-  1.0000  0.913510  0.865300  0.109920  Uiso  0.025330
    O1  O2-  1.0000  0.746710  0.026070  0.143750  Uiso  0.025330
    O1  O2-  1.0000  0.175930  0.226750  0.143750  Uiso  0.025330
    O1  O2-  1.0000  0.444380  0.260630  0.143750  Uiso  0.025330
    O1  O2-  1.0000  0.712830  0.294520  0.143750  Uiso  0.025330
    O1  O2-  1.0000  0.981280  0.328400  0.143750  Uiso  0.025330
    O1  O2-  1.0000  0.142040  0.495200  0.143750  Uiso  0.025330
    O1  O2-  1.0000  0.410490  0.529080  0.143750  Uiso  0.025330
    O1  O2-  1.0000  0.678940  0.562970  0.143750  Uiso  0.025330
    O1  O2-  1.0000  0.947390  0.596850  0.143750  Uiso  0.025330
    O1  O2-  1.0000  0.108160  0.763650  0.143750  Uiso  0.025330
    O1  O2-  1.0000  0.376610  0.797530  0.143750  Uiso  0.025330
    O1  O2-  1.0000  0.645060  0.831420  0.143750  Uiso  0.025330
    O1  O2-  1.0000  0.913510  0.865300  0.143750  Uiso  0.025330
    O1  O2-  1.0000  0.746710  0.026070  0.177570  Uiso  0.025330
    O1  O2-  1.0000  0.175930  0.226750  0.177570  Uiso  0.025330
    O1  O2-  1.0000  0.444380  0.260630  0.177570  Uiso  0.025330
    O1  O2-  1.0000  0.712830  0.294520  0.177570  Uiso  0.025330
    O1  O2-  1.0000  0.981280  0.328400  0.177570  Uiso  0.025330
    O1  O2-  1.0000  0.142040  0.495200  0.177570  Uiso  0.025330
    O1  O2-  1.0000  0.410490  0.529080  0.177570  Uiso  0.025330
    O1  O2-  1.0000  0.678940  0.562970  0.177570  Uiso  0.025330
    O1  O2-  1.0000  0.947390  0.596850  0.177570  Uiso  0.025330
    O1  O2-  1.0000  0.108160  0.763650  0.177570  Uiso  0.025330
    O1  O2-  1.0000  0.376610  0.797530  0.177570  Uiso  0.025330
    O1  O2-  1.0000  0.645060  0.831420  0.177570  Uiso  0.025330
    O1  O2-  1.0000  0.913510  0.865300  0.177570  Uiso  0.025330
    O1  O2-  1.0000  0.746710  0.026070  0.211390  Uiso  0.025330
    O1  O2-  1.0000  0.175930  0.226750  0.211390  Uiso  0.025330
    O1  O2-  1.0000  0.444380  0.260630  0.211390  Uiso  0.025330
    O1  O2-  1.0000  0.712830  0.294520  0.211390  Uiso  0.025330
    O1  O2-  1.0000  0.981280  0.328400  0.211390  Uiso  0.025330
    O1  O2-  1.0000  0.142040  0.495200  0.211390  Uiso  0.025330
    O1  O2-  1.0000  0.410490  0.529080  0.211390  Uiso  0.025330
    O1  O2-  1.0000  0.678940  0.562970  0.211390  Uiso  0.025330
    O1  O2-  1.0000  0.947390  0.596850  0.211390  Uiso  0.025330
    O1  O2-  1.0000  0.108160  0.763650  0.211390  Uiso  0.025330
    O1  O2-  1.0000  0.376610  0.797530  0.211390  Uiso  0.025330
    O1  O2-  1.0000  0.645060  0.831420  0.211390  Uiso  0.025330
    O1  O2-  1.0000  0.913510  0.865300  0.211390  Uiso  0.025330
    O1  O2-  1.0000  0.746710  0.026070  0.245210  Uiso  0.025330
    O1  O2-  1.0000  0.175930  0.226750  0.245210  Uiso  0.025330
    O1  O2-  1.0000  0.444380  0.260630  0.245210  Uiso  0.025330
    O1  O2-  1.0000  0.712830  0.294520  0.245210  Uiso  0.025330
    O1  O2-  1.0000  0.981280  0.328400  0.245210  Uiso  0.025330
    O1  O2-  1.0000  0.142040  0.495200  0.245210  Uiso  0.025330
    O1  O2-  1.0000  0.410490  0.529080  0.245210  Uiso  0.025330
    O1  O2-  1.0000  0.678940  0.562970  0.245210  Uiso  0.025330
    O1  O2-  1.0000  0.947390  0.596850  0.245210  Uiso  0.025330
    O1  O2-  1.0000  0.108160  0.763650  0.245210  Uiso  0.025330
    O1  O2-  1.0000  0.376610  0.797530  0.245210  Uiso  0.025330
    O1  O2-  1.0000  0.645060  0.831420  0.245210  Uiso  0.025330
    O1  O2-  1.0000  0.913510  0.865300  0.245210  Uiso  0.025330
    O1  O2-  1.0000  0.746710  0.026070  0.279040  Uiso  0.025330
    O1  O2-  1.0000  0.175930  0.226750  0.279040  Uiso  0.025330
    O1  O2-  1.0000  0.444380  0.260630  0.279040  Uiso  0.025330
    O1  O2-  1.0000  0.712830  0.294520  0.279040  Uiso  0.025330
    O1  O2-  1.0000  0.981280  0.328400  0.279040  Uiso  0.025330
    O1  O2-  1.0000  0.142040  0.495200  0.279040  Uiso  0.025330
    O1  O2-  1.0000  0.410490  0.529080  0.279040  Uiso  0.025330
    O1  O2-  1.0000  0.678940  0.562970  0.279040  Uiso  0.025330
    O1  O2-  1.0000  0.947390  0.596850  0.279040  Uiso  0.025330
    O1  O2-  1.0000  0.108160  0.763650  0.279040  Uiso  0.025330
    O1  O2-  1.0000  0.376610  0.797530  0.279040  Uiso  0.025330
    O1  O2-  1.0000  0.645060  0.831420  0.279040  Uiso  0.025330
    O1  O2-  1.0000  0.913510  0.865300  0.279040  Uiso  0.025330
    O1  O2-  1.0000  0.746710  0.026070  0.312860  Uiso  0.025330
    O1  O2-  1.0000  0.175930  0.226750  0.312860  Uiso  0.025330
    O1  O2-  1.0000  0.444380  0.260630  0.312860  Uiso  0.025330
    O1  O2-  1.0000  0.712830  0.294520  0.312860  Uiso  0.025330
    O1  O2-  1.0000  0.981280  0.328400  0.312860  Uiso  0.025330
    O1  O2-  1.0000  0.142040  0.495200  0.312860  Uiso  0.025330
    O1  O2-  1.0000  0.410490  0.529080  0.312860  Uiso  0.025330
    O1  O2-  1.0000  0.678940  0.562970  0.312860  Uiso  0.025330
    O1  O2-  1.0000  0.947390  0.596850  0.312860  Uiso  0.025330
    O1  O2-  1.0000  0.108160  0.763650  0.312860  Uiso  0.025330
    O1  O2-  1.0000  0.376610  0.797530  0.312860  Uiso  0.025330
    O1  O2-  1.0000  0.645060  0.831420  0.312860  Uiso  0.025330
    O1  O2-  1.0000  0.913510  0.865300  0.312860  Uiso  0.025330
    O1  O2-  1.0000  0.746710  0.026070  0.346680  Uiso  0.025330
    O1  O2-  1.0000  0.175930  0.226750  0.346680  Uiso  0.025330
    O1  O2-  1.0000  0.444380  0.260630  0.346680  Uiso  0.025330
    O1  O2-  1.0000  0.712830  0.294520  0.346680  Uiso  0.025330
    O1  O2-  1.0000  0.981280  0.328400  0.346680  Uiso  0.025330
    O1  O2-  1.0000  0.142040  0.495200  0.346680  Uiso  0.025330
    O1  O2-  1.0000  0.410490  0.529080  0.346680  Uiso  0.025330
    O1  O2-  1.0000  0.678940  0.562970  0.346680  Uiso  0.025330
    O1  O2-  1.0000  0.947390  0.596850  0.346680  Uiso  0.025330
    O1  O2-  1.0000  0.108160  0.763650  0.346680  Uiso  0.025330
    O1  O2-  1.0000  0.376610  0.797530  0.346680  Uiso  0.025330
    O1  O2-  1.0000  0.645060  0.831420  0.346680  Uiso  0.025330
    O1  O2-  1.0000  0.913510  0.865300  0.346680  Uiso  0.025330
    O1  O2-  1.0000  0.746710  0.026070  0.380500  Uiso  0.025330
    O1  O2-  1.0000  0.175930  0.226750  0.380500  Uiso  0.025330
    O1  O2-  1.0000  0.444380  0.260630  0.380500  Uiso  0.025330
    O1  O2-  1.0000  0.712830  0.294520  0.380500  Uiso  0.025330
    O1  O2-  1.0000  0.981280  0.328400  0.380500  Uiso  0.025330
    O1  O2-  1.0000  0.142040  0.495200  0.380500  Uiso  0.025330
    O1  O2-  1.0000  0.410490  0.529080  0.380500  Uiso  0.025330
    O1  O2-  1.0000  0.678940  0.562970  0.380500  Uiso  0.025330
    O1  O2-  1.0000  0.947390  0.596850  0.380500  Uiso  0.025330
    O1  O2-  1.0000  0.108160  0.763650  0.380500  Uiso  0.025330
    O1  O2-  1.0000  0.376610  0.797530  0.380500  Uiso  0.025330
    O1  O2-  1.0000  0.645060  0.831420  0.380500  Uiso  0.025330
    O1  O2-  1.0000  0.913510  0.865300  0.380500  Uiso  0.025330
    O1  O2-  1.0000  0.746710  0.026070  0.414330  Uiso  0.025330
    O1  O2-  1.0000  0.175930  0.226750  0.414330  Uiso  0.025330
    O1  O2-  1.0000  0.444380  0.260630  0.414330  Uiso  0.025330
    O1  O2-  1.0000  0.712830  0.294520  0.414330  Uiso  0.025330
    O1  O2-  1.0000  0.981280  0.328400  0.414330  Uiso  0.025330
    O1  O2-  1.0000  0.142040  0.495200  0.414330  Uiso  0.025330
    O1  O2-  1.0000  0.410490  0.529080  0.414330  Uiso  0.025330
    O1  O2-  1.0000  0.678940  0.562970  0.414330  Uiso  0.025330
    O1  O2-  1.0000  0.947390  0.596850  0.414330  Uiso  0.025330
    O1  O2-  1.0000  0.108160  0.763650  0.414330  Uiso  0.025330
    O1  O2-  1.0000  0.376610  0.797530  0.414330  Uiso  0.025330
    O1  O2-  1.0000  0.645060  0.831420  0.414330  Uiso  0.025330
    O1  O2-  1.0000  0.913510  0.865300  0.414330  Uiso  0.025330
    O1  O2-  1.0000  0.746710  0.026070  0.448150  Uiso  0.025330
    O1  O2-  1.0000  0.175930  0.226750  0.448150  Uiso  0.025330
    O1  O2-  1.0000  0.444380  0.260630  0.448150  Uiso  0.025330
    O1  O2-  1.0000  0.712830  0.294520  0.448150  Uiso  0.025330
    O1  O2-  1.0000  0.981280  0.328400  0.448150  Uiso  0.025330
    O1  O2-  1.0000  0.142040  0.495200  0.448150  Uiso  0.025330
    O1  O2-  1.0000  0.410490  0.529080  0.448150  Uiso  0.025330
    O1  O2-  1.0000  0.678940  0.562970  0.448150  Uiso  0.025330
    O1  O2-  1.0000  0.947390  0.596850  0.448150  Uiso  0.025330
    O1  O2-  1.0000  0.108160  0.763650  0.448150  Uiso  0.025330
    O1  O2-  1.0000  0.376610  0.797530  0.448150  Uiso  0.025330
    O1  O2-  1.0000  0.645060  0.831420  0.448150  Uiso  0.025330
    O1  O2-  1.0000  0.913510  0.865300  0.448150  Uiso  0.025330
    O1  O2-  1.0000  0.746710  0.026070  0.481970  Uiso  0.025330
    O1  O2-  1.0000  0.175930  0.226750  0.481970  Uiso  0.025330
    O1  O2-  1.0000  0.444380  0.260630  0.481970  Uiso  0.025330
    O1  O2-  1.0000  0.712830  0.294520  0.481970  Uiso  0.025330
    O1  O2-  1.0000  0.981280  0.328400  0.481970  Uiso  0.025330
    O1  O2-  1.0000  0.142040  0.495200  0.481970  Uiso  0.025330
    O1  O2-  1.0000  0.410490  0.529080  0.481970  Uiso  0.025330
    O1  O2-  1.0000  0.678940  0.562970  0.481970  Uiso  0.025330
    O1  O2-  1.0000  0.947390  0.596850  0.481970  Uiso  0.025330
    O1  O2-  1.0000  0.108160  0.763650  0.481970  Uiso  0.025330
    O1  O2-  1.0000  0.376610  0.797530  0.481970  Uiso  0.025330
    O1  O2-  1.0000  0.645060  0.831420  0.481970  Uiso  0.025330
    O1  O2-  1.0000  0.913510  0.865300  0.481970  Uiso  0.025330
    O1  O2-  1.0000  0.746710  0.026070  0.515790  Uiso  0.025330
    O1  O2-  1.0000  0.175930  0.226750  0.515790  Uiso  0.025330
    O1  O2-  1.0000  0.444380  0.260630  0.515790  Uiso  0.025330
    O1  O2-  1.0000  0.712830  0.294520  0.515790  Uiso  0.025330
    O1  O2-  1.0000  0.981280  0.328400  0.515790  Uiso  0.025330
    O1  O2-  1.0000  0.142040  0.495200  0.515790  Uiso  0.025330
    O1  O2-  1.0000  0.410490  0.529080  0.515790  Uiso  0.025330
    O1  O2-  1.0000  0.678940  0.562970  0.515790  Uiso  0.025330
    O1  O2-  1.0000  0.947390  0.596850  0.515790  Uiso  0.025330
    O1  O2-  1.0000  0.108160  0.763650  0.515790  Uiso  0.025330
    O1  O2-  1.0000  0.376610  0.797530  0.515790  Uiso  0.025330
    O1  O2-  1.0000  0.645060  0.831420  0.515790  Uiso  0.025330
    O1  O2-  1.0000  0.913510  0.865300  0.515790  Uiso  0.025330
    O1  O2-  1.0000  0.746710  0.026070  0.549620  Uiso  0.025330
    O1  O2-  1.0000  0.175930  0.226750  0.549620  Uiso  0.025330
    O1  O2-  1.0000  0.444380  0.260630  0.549620  Uiso  0.025330
    O1  O2-  1.0000  0.712830  0.294520  0.549620  Uiso  0.025330
    O1  O2-  1.0000  0.981280  0.328400  0.549620  Uiso  0.025330
    O1  O2-  1.0000  0.142040  0.495200  0.549620  Uiso  0.025330
    O1  O2-  1.0000  0.410490  0.529080  0.549620  Uiso  0.025330
    O1  O2-  1.0000  0.678940  0.562970  0.549620  Uiso  0.025330
    O1  O2-  1.0000  0.947390  0.596850  0.549620  Uiso  0.025330
    O1  O2-  1.0000  0.108160  0.763650  0.549620  Uiso  0.025330
    O1  O2-  1.0000  0.376610  0.797530  0.549620  Uiso  0.025330
    O1  O2-  1.0000  0.645060  0.831420  0.549620  Uiso  0.025330
    O1  O2-  1.0000  0.913510  0.865300  0.549620  Uiso  0.025330
    O1  O2-  1.0000  0.746710  0.026070  0.583440  Uiso  0.025330
    O1  O2-  1.0000  0.175930  0.226750  0.583440  Uiso  0.025330
    O1  O2-  1.0000  0.444380  0.260630  0.583440  Uiso  0.025330
    O1  O2-  1.0000  0.712830  0.294520  0.583440  Uiso  0.025330
    O1  O2-  1.0000  0.981280  0.328400  0.583440  Uiso  0.025330
    O1  O2-  1.0000  0.142040  0.495200  0.583440  Uiso  0.025330
    O1  O2-  1.0000  0.410490  0.529080  0.583440  Uiso  0.025330
    O1  O2-  1.0000  0.678940  0.562970  0.583440  Uiso  0.025330
    O1  O2-  1.0000  0.947390  0.596850  0.583440  Uiso  0.025330
    O1  O2-  1.0000  0.108160  0.763650  0.583440  Uiso  0.025330
    O1  O2-  1.0000  0.376610  0.797530  0.583440  Uiso  0.025330
    O1  O2-  1.0000  0.645060  0.831420  0.583440  Uiso  0.025330
    O1  O2-  1.0000  0.913510  0.865300  0.583440  Uiso  0.025330
    O1  O2-  1.0000  0.746710  0.026070  0.617260  Uiso  0.025330
    O1  O2-  1.0000  0.175930  0.226750  0.617260  Uiso  0.025330
    O1  O2-  1.0000  0.444380  0.260630  0.617260  Uiso  0.025330
    O1  O2-  1.0000  0.712830  0.294520  0.617260  Uiso  0.025330
    O1  O2-  1.0000  0.981280  0.328400  0.617260  Uiso  0.025330
    O1  O2-  1.0000  0.142040  0.495200  0.617260  Uiso  0.025330
    O1  O2-  1.0000  0.410490  0.529080  0.617260  Uiso  0.025330
    O1  O2-  1.0000  0.678940  0.562970  0.617260  Uiso  0.025330
    O1  O2-  1.0000  0.947390  0.596850  0.617260  Uiso  0.025330
    O1  O2-  1.0000  0.108160  0.763650  0.617260  Uiso  0.025330
    O1  O2-  1.0000  0.376610  0.797530  0.617260  Uiso  0.025330
    O1  O2-  1.0000  0.645060  0.831420  0.617260  Uiso  0.025330
    O1  O2-  1.0000  0.913510  0.865300  0.617260  Uiso  0.025330
    O1  O2-  1.0000  0.746710  0.026070  0.651080  Uiso  0.025330
    O1  O2-  1.0000  0.175930  0.226750  0.651080  Uiso  0.025330
    O1  O2-  1.0000  0.444380  0.260630  0.651080  Uiso  0.025330
    O1  O2-  1.0000  0.712830  0.294520  0.651080  Uiso  0.025330
    O1  O2-  1.0000  0.981280  0.328400  0.651080  Uiso  0.025330
    O1  O2-  1.0000  0.142040  0.495200  0.651080  Uiso  0.025330
    O1  O2-  1.0000  0.410490  0.529080  0.651080  Uiso  0.025330
    O1  O2-  1.0000  0.678940  0.562970  0.651080  Uiso  0.025330
    O1  O2-  1.0000  0.947390  0.596850  0.651080  Uiso  0.025330
    O1  O2-  1.0000  0.108160  0.763650  0.651080  Uiso  0.025330
    O1  O2-  1.0000  0.376610  0.797530  0.651080  Uiso  0.025330
    O1  O2-  1.0000  0.645060  0.831420  0.651080  Uiso  0.025330
    O1  O2-  1.0000  0.913510  0.865300  0.651080  Uiso  0.025330
    O1  O2-  1.0000  0.746710  0.026070  0.684910  Uiso  0.025330
    O1  O2-  1.0000  0.175930  0.226750  0.684910  Uiso  0.025330
    O1  O2-  1.0000  0.444380  0.260630  0.684910  Uiso  0.025330
    O1  O2-  1.0000  0.712830  0.294520  0.684910  Uiso  0.025330
    O1  O2-  1.0000  0.981280  0.328400  0.684910  Uiso  0.025330
    O1  O2-  1.0000  0.142040  0.495200  0.684910  Uiso  0.025330
    O1  O2-  1.0000  0.410490  0.529080  0.684910  Uiso  0.025330
    O1  O2-  1.0000  0.678940  0.562970  0.684910  Uiso  0.025330
    O1  O2-  1.0000  0.947390  0.596850  0.684910  Uiso  0.025330
    O1  O2-  1.0000  0.108160  0.763650  0.684910  Uiso  0.025330
    O1  O2-  1.0000  0.376610  0.797530  0.684910  Uiso  0.025330
    O1  O2-  1.0000  0.645060  0.831420  0.684910  Uiso  0.025330
    O1  O2-  1.0000  0.913510  0.865300  0.684910  Uiso  0.025330
    O1  O2-  1.0000  0.746710  0.026070  0.718730  Uiso  0.025330
    O1  O2-  1.0000  0.175930  0.226750  0.718730  Uiso  0.025330
    O1  O2-  1.0000  0.444380  0.260630  0.718730  Uiso  0.025330
    O1  O2-  1.0000  0.712830  0.294520  0.718730  Uiso  0.025330
    O1  O2-  1.0000  0.981280  0.328400  0.718730  Uiso  0.025330
    O1  O2-  1.0000  0.142040  0.495200  0.718730  Uiso  0.025330
    O1  O2-  1.0000  0.410490  0.529080  0.718730  Uiso  0.025330
    O1  O2-  1.0000  0.678940  0.562970  0.718730  Uiso  0.025330
    O1  O2-  1.0000  0.947390  0.596850  0.718730  Uiso  0.025330
    O1  O2-  1.0000  0.108160  0.763650  0.718730  Uiso  0.025330
    O1  O2-  1.0000  0.376610  0.797530  0.718730  Uiso  0.025330
    O1  O2-  1.0000  0.645060  0.831420  0.718730  Uiso  0.025330
    O1  O2-  1.0000  0.913510  0.865300  0.718730  Uiso  0.025330
    O1  O2-  1.0000  0.746710  0.026070  0.752550  Uiso  0.025330
    O1  O2-  1.0000  0.175930  0.226750  0.752550  Uiso  0.025330
    O1  O2-  1.0000  0.444380  0.260630  0.752550  Uiso  0.025330
    O1  O2-  1.0000  0.712830  0.294520  0.752550  Uiso  0.025330
    O1  O2-  1.0000  0.981280  0.328400  0.752550  Uiso  0.025330
    O1  O2-  1.0000  0.142040  0.495200  0.752550  Uiso  0.025330
    O1  O2-  1.0000  0.410490  0.529080  0.752550  Uiso  0.025330
    O1  O2-  1.0000  0.678940  0.562970  0.752550  Uiso  0.025330
    O1  O2-  1.0000  0.947390  0.596850  0.752550  Uiso  0.025330
    O1  O2-  1.0000  0.108160  0.763650  0.752550  Uiso  0.025330
    O1  O2-  1.0000  0.376610  0.797530  0.752550  Uiso  0.025330
    O1  O2-  1.0000  0.645060  0.831420  0.752550  Uiso  0.025330
    O1  O2-  1.0000  0.913510  0.865300  0.752550  Uiso  0.025330
    O1  O2-  1.0000  0.746710  0.026070  0.786370  Uiso  0.025330
    O1  O2-  1.0000  0.175930  0.226750  0.786370  Uiso  0.025330
    O1  O2-  1.0000  0.444380  0.260630  0.786370  Uiso  0.025330
    O1  O2-  1.0000  0.712830  0.294520  0.786370  Uiso  0.025330
    O1  O2-  1.0000  0.981280  0.328400  0.786370  Uiso  0.025330
    O1  O2-  1.0000  0.142040  0.495200  0.786370  Uiso  0.025330
    O1  O2-  1.0000  0.410490  0.529080  0.786370  Uiso  0.025330
    O1  O2-  1.0000  0.678940  0.562970  0.786370  Uiso  0.025330
    O1  O2-  1.0000  0.947390  0.596850  0.786370  Uiso  0.025330
    O1  O2-  1.0000  0.108160  0.763650  0.786370  Uiso  0.025330
    O1  O2-  1.0000  0.376610  0.797530  0.786370  Uiso  0.025330
    O1  O2-  1.0000  0.645060  0.831420  0.786370  Uiso  0.025330
    O1  O2-  1.0000  0.913510  0.865300  0.786370  Uiso  0.025330
    O1  O2-  1.0000  0.746710  0.026070  0.820200  Uiso  0.025330
    O1  O2-  1.0000  0.175930  0.226750  0.820200  Uiso  0.025330
    O1  O2-  1.0000  0.444380  0.260630  0.820200  Uiso  0.025330
    O1  O2-  1.0000  0.712830  0.294520  0.820200  Uiso  0.025330
    O1  O2-  1.0000  0.981280  0.328400  0.820200  Uiso  0.025330
    O1  O2-  1.0000  0.142040  0.495200  0.820200  Uiso  0.025330
    O1  O2-  1.0000  0.410490  0.529080  0.820200  Uiso  0.025330
    O1  O2-  1.0000  0.678940  0.562970  0.820200  Uiso  0.025330
    O1  O2-  1.0000  0.947390  0.596850  0.820200  Uiso  0.025330
    O1  O2-  1.0000  0.108160  0.763650  0.820200  Uiso  0.025330
    O1  O2-  1.0000  0.376610  0.797530  0.820200  Uiso  0.025330
    O1  O2-  1.0000  0.645060  0.831420  0.820200  Uiso  0.025330
    O1  O2-  1.0000  0.913510  0.865300  0.820200  Uiso  0.025330
    O1  O2-  1.0000  0.746710  0.026070  0.854020  Uiso  0.025330
    O1  O2-  1.0000  0.175930  0.226750  0.854020  Uiso  0.025330
    O1  O2-  1.0000  0.444380  0.260630  0.854020  Uiso  0.025330
    O1  O2-  1.0000  0.712830  0.294520  0.854020  Uiso  0.025330
    O1  O2-  1.0000  0.981280  0.328400  0.854020  Uiso  0.025330
    O1  O2-  1.0000  0.142040  0.495200  0.854020  Uiso  0.025330
    O1  O2-  1.0000  0.410490  0.529080  0.854020  Uiso  0.025330
    O1  O2-  1.0000  0.678940  0.562970  0.854020  Uiso  0.025330
    O1  O2-  1.0000  0.947390  0.596850  0.854020  Uiso  0.025330
    O1  O2-  1.0000  0.108160  0.763650  0.854020  Uiso  0.025330
    O1  O2-  1.0000  0.376610  0.797530  0.854020  Uiso  0.025330
    O1  O2-  1.0000  0.645060  0.831420  0.854020  Uiso  0.025330
    O1  O2-  1.0000  0.913510  0.865300  0.854020  Uiso  0.025330
    O1  O2-  1.0000  0.746710  0.026070  0.887840  Uiso  0.025330
    O1  O2-  1.0000  0.175930  0.226750  0.887840  Uiso  0.025330
    O1  O2-  1.0000  0.444380  0.260630  0.887840  Uiso  0.025330
    O1  O2-  1.0000  0.712830  0.294520  0.887840  Uiso  0.025330
    O1  O2-  1.0000  0.981280  0.328400  0.887840  Uiso  0.025330
    O1  O2-  1.0000  0.142040  0.495200  0.887840  Uiso  0.025330
    O1  O2-  1.0000  0.410490  0.529080  0.887840  Uiso  0.025330
    O1  O2-  1.0000  0.678940  0.562970  0.887840  Uiso  0.025330
    O1  O2-  1.0000  0.947390  0.596850  0.887840  Uiso  0.025330
    O1  O2-  1.0000  0.108160  0.763650  0.887840  Uiso  0.025330
    O1  O2-  1.0000  0.376610  0.797530  0.887840  Uiso  0.025330
    O1  O2-  1.0000  0.645060  0.831420  0.887840  Uiso  0.025330
    O1  O2-  1.0000  0.913510  0.865300  0.887840  Uiso  0.025330
    O1  O2-  1.0000  0.746710  0.026070  0.921660  Uiso  0.025330
    O1  O2-  1.0000  0.175930  0.226750  0.921660  Uiso  0.025330
    O1  O2-  1.0000  0.444380  0.260630  0.921660  Uiso  0.025330
    O1  O2-  1.0000  0.712830  0.294520  0.921660  Uiso  0.025330
    O1  O2-  1.0000  0.981280  0.328400  0.921660  Uiso  0.025330
    O1  O2-  1.0000  0.142040  0.495200  0.921660  Uiso  0.025330
    O1  O2-  1.0000  0.410490  0.529080  0.921660  Uiso  0.025330
    O1  O2-  1.0000  0.678940  0.562970  0.921660  Uiso  0.025330
    O1  O2-  1.0000  0.947390  0.596850  0.921660  Uiso  0.025330
    O1  O2-  1.0000  0.108160  0.763650  0.921660  Uiso  0.025330
    O1  O2-  1.0000  0.376610  0.797530  0.921660  Uiso  0.025330
    O1  O2-  1.0000  0.645060  0.831420  0.921660  Uiso  0.025330
    O1  O2-  1.0000  0.913510  0.865300  0.921660  Uiso  0.025330
    O1  O2-  1.0000  0.746710  0.026070  0.955490  Uiso  0.025330
    O1  O2-  1.0000  0.175930  0.226750  0.955490  Uiso  0.025330
    O1  O2-  1.0000  0.444380  0.260630  0.955490  Uiso  0.025330
    O1  O2-  1.0000  0.712830  0.294520  0.955490  Uiso  0.025330
    O1  O2-  1.0000  0.981280  0.328400  0.955490  Uiso  0.025330
    O1  O2-  1.0000  0.142040  0.495200  0.955490  Uiso  0.025330
    O1  O2-  1.0000  0.410490  0.529080  0.955490  Uiso  0.025330
    O1  O2-  1.0000  0.678940  0.562970  0.955490  Uiso  0.025330
    O1  O2-  1.0000  0.947390  0.596850  0.955490  Uiso  0.025330
    O1  O2-  1.0000  0.108160  0.763650  0.955490  Uiso  0.025330
    O1  O2-  1.0000  0.376610  0.797530  0.955490  Uiso  0.025330
    O1  O2-  1.0000  0.645060  0.831420  0.955490  Uiso  0.025330
    O1  O2-  1.0000  0.913510  0.865300  0.955490  Uiso  0.025330
    O1  O2-  1.0000  0.746710  0.026070  0.989310  Uiso  0.025330
    O1  O2-  1.0000  0.175930  0.226750  0.989310  Uiso  0.025330
    O1  O2-  1.0000  0.444380  0.260630  0.989310  Uiso  0.025330
    O1  O2-  1.0000  0.712830  0.294520  0.989310  Uiso  0.025330
    O1  O2-  1.0000  0.981280  0.328400  0.989310  Uiso  0.025330
    O1  O2-  1.0000  0.142040  0.495200  0.989310  Uiso  0.025330
    O1  O2-  1.0000  0.410490  0.529080  0.989310  Uiso  0.025330
    O1  O2-  1.0000  0.678940  0.562970  0.989310  Uiso  0.025330
    O1  O2-  1.0000  0.947390  0.596850  0.989310  Uiso  0.025330
    O1  O2-  1.0000  0.108160  0.763650  0.989310  Uiso  0.025330
    O1  O2-  1.0000  0.376610  0.797530  0.989310  Uiso  0.025330
    O1  O2-  1.0000  0.645060  0.831420  0.989310  Uiso  0.025330
    O1  O2-  1.0000  0.913510  0.865300  0.989310  Uiso  0.025330
    Ce1  Ce4+  1.0000  0.251510  0.168110  0.016910  Uiso  0.001267
    Ce1  Ce4+  1.0000  0.519960  0.201990  0.016910  Uiso  0.001267
    Ce1  Ce4+  1.0000  0.788410  0.235870  0.016910  Uiso  0.001267
    Ce1  Ce4+  1.0000  0.217630  0.436560  0.016910  Uiso  0.001267
    Ce1  Ce4+  1.0000  0.486080  0.470440  0.016910  Uiso  0.001267
    Ce1  Ce4+  1.0000  0.754530  0.504320  0.016910  Uiso  0.001267
    Ce1  Ce4+  1.0000  0.183740  0.705010  0.016910  Uiso  0.001267
    Ce1  Ce4+  1.0000  0.452190  0.738890  0.016910  Uiso  0.001267
    Ce1  Ce4+  1.0000  0.720640  0.772770  0.016910  Uiso  0.001267
    Ce1  Ce4+  1.0000  0.989090  0.806660  0.016910  Uiso  0.001267
    Ce1  Ce4+  1.0000  0.149860  0.973460  0.016910  Uiso  0.001267
    Ce1  Ce4+  1.0000  0.251510  0.168110  0.050730  Uiso  0.001267
    Ce1  Ce4+  1.0000  0.519960  0.201990  0.050730  Uiso  0.001267
    Ce1  Ce4+  1.0000  0.788410  0.235870  0.050730  Uiso  0.001267
    Ce1  Ce4+  1.0000  0.217630  0.436560  0.050730  Uiso  0.001267
    Ce1  Ce4+  1.0000  0.486080  0.470440  0.050730  Uiso  0.001267
    Ce1  Ce4+  1.0000  0.754530  0.504320  0.050730  Uiso  0.001267
    Ce1  Ce4+  1.0000  0.183740  0.705010  0.050730  Uiso  0.001267
    Ce1  Ce4+  1.0000  0.452190  0.738890  0.050730  Uiso  0.001267
    Ce1  Ce4+  1.0000  0.720640  0.772770  0.050730  Uiso  0.001267
    Ce1  Ce4+  1.0000  0.989090  0.806660  0.050730  Uiso  0.001267
    Ce1  Ce4+  1.0000  0.149860  0.973460  0.050730  Uiso  0.001267
    Ce1  Ce4+  1.0000  0.251510  0.168110  0.084560  Uiso  0.001267
    Ce1  Ce4+  1.0000  0.519960  0.201990  0.084560  Uiso  0.001267
    Ce1  Ce4+  1.0000  0.788410  0.235870  0.084560  Uiso  0.001267
    Ce1  Ce4+  1.0000  0.217630  0.436560  0.084560  Uiso  0.001267
    Ce1  Ce4+  1.0000  0.486080  0.470440  0.084560  Uiso  0.001267
    Ce1  Ce4+  1.0000  0.754530  0.504320  0.084560  Uiso  0.001267
    Ce1  Ce4+  1.0000  0.183740  0.705010  0.084560  Uiso  0.001267
    Ce1  Ce4+  1.0000  0.452190  0.738890  0.084560  Uiso  0.001267
    Ce1  Ce4+  1.0000  0.720640  0.772770  0.084560  Uiso  0.001267
    Ce1  Ce4+  1.0000  0.989090  0.806660  0.084560  Uiso  0.001267
    Ce1  Ce4+  1.0000  0.149860  0.973460  0.084560  Uiso  0.001267
    Ce1  Ce4+  1.0000  0.251510  0.168110  0.118380  Uiso  0.001267
    Ce1  Ce4+  1.0000  0.519960  0.201990  0.118380  Uiso  0.001267
    Ce1  Ce4+  1.0000  0.788410  0.235870  0.118380  Uiso  0.001267
    Ce1  Ce4+  1.0000  0.217630  0.436560  0.118380  Uiso  0.001267
    Ce1  Ce4+  1.0000  0.486080  0.470440  0.118380  Uiso  0.001267
    Ce1  Ce4+  1.0000  0.754530  0.504320  0.118380  Uiso  0.001267
    Ce1  Ce4+  1.0000  0.183740  0.705010  0.118380  Uiso  0.001267
    Ce1  Ce4+  1.0000  0.452190  0.738890  0.118380  Uiso  0.001267
    Ce1  Ce4+  1.0000  0.720640  0.772770  0.118380  Uiso  0.001267
    Ce1  Ce4+  1.0000  0.989090  0.806660  0.118380  Uiso  0.001267
    Ce1  Ce4+  1.0000  0.149860  0.973460  0.118380  Uiso  0.001267
    Ce1  Ce4+  1.0000  0.251510  0.168110  0.152200  Uiso  0.001267
    Ce1  Ce4+  1.0000  0.519960  0.201990  0.152200  Uiso  0.001267
    Ce1  Ce4+  1.0000  0.788410  0.235870  0.152200  Uiso  0.001267
    Ce1  Ce4+  1.0000  0.217630  0.436560  0.152200  Uiso  0.001267
    Ce1  Ce4+  1.0000  0.486080  0.470440  0.152200  Uiso  0.001267
    Ce1  Ce4+  1.0000  0.754530  0.504320  0.152200  Uiso  0.001267
    Ce1  Ce4+  1.0000  0.183740  0.705010  0.152200  Uiso  0.001267
    Ce1  Ce4+  1.0000  0.452190  0.738890  0.152200  Uiso  0.001267
    Ce1  Ce4+  1.0000  0.720640  0.772770  0.152200  Uiso  0.001267
    Ce1  Ce4+  1.0000  0.989090  0.806660  0.152200  Uiso  0.001267
    Ce1  Ce4+  1.0000  0.149860  0.973460  0.152200  Uiso  0.001267
    Ce1  Ce4+  1.0000  0.251510  0.168110  0.186020  Uiso  0.001267
    Ce1  Ce4+  1.0000  0.519960  0.201990  0.186020  Uiso  0.001267
    Ce1  Ce4+  1.0000  0.788410  0.235870  0.186020  Uiso  0.001267
    Ce1  Ce4+  1.0000  0.217630  0.436560  0.186020  Uiso  0.001267
    Ce1  Ce4+  1.0000  0.486080  0.470440  0.186020  Uiso  0.001267
    Ce1  Ce4+  1.0000  0.754530  0.504320  0.186020  Uiso  0.001267
    Ce1  Ce4+  1.0000  0.183740  0.705010  0.186020  Uiso  0.001267
    Ce1  Ce4+  1.0000  0.452190  0.738890  0.186020  Uiso  0.001267
    Ce1  Ce4+  1.0000  0.720640  0.772770  0.186020  Uiso  0.001267
    Ce1  Ce4+  1.0000  0.989090  0.806660  0.186020  Uiso  0.001267
    Ce1  Ce4+  1.0000  0.149860  0.973460  0.186020  Uiso  0.001267
    Ce1  Ce4+  1.0000  0.251510  0.168110  0.219850  Uiso  0.001267
    Ce1  Ce4+  1.0000  0.519960  0.201990  0.219850  Uiso  0.001267
    Ce1  Ce4+  1.0000  0.788410  0.235870  0.219850  Uiso  0.001267
    Ce1  Ce4+  1.0000  0.217630  0.436560  0.219850  Uiso  0.001267
    Ce1  Ce4+  1.0000  0.486080  0.470440  0.219850  Uiso  0.001267
    Ce1  Ce4+  1.0000  0.754530  0.504320  0.219850  Uiso  0.001267
    Ce1  Ce4+  1.0000  0.183740  0.705010  0.219850  Uiso  0.001267
    Ce1  Ce4+  1.0000  0.452190  0.738890  0.219850  Uiso  0.001267
    Ce1  Ce4+  1.0000  0.720640  0.772770  0.219850  Uiso  0.001267
    Ce1  Ce4+  1.0000  0.989090  0.806660  0.219850  Uiso  0.001267
    Ce1  Ce4+  1.0000  0.149860  0.973460  0.219850  Uiso  0.001267
    Ce1  Ce4+  1.0000  0.251510  0.168110  0.253670  Uiso  0.001267
    Ce1  Ce4+  1.0000  0.519960  0.201990  0.253670  Uiso  0.001267
    Ce1  Ce4+  1.0000  0.788410  0.235870  0.253670  Uiso  0.001267
    Ce1  Ce4+  1.0000  0.217630  0.436560  0.253670  Uiso  0.001267
    Ce1  Ce4+  1.0000  0.486080  0.470440  0.253670  Uiso  0.001267
    Ce1  Ce4+  1.0000  0.754530  0.504320  0.253670  Uiso  0.001267
    Ce1  Ce4+  1.0000  0.183740  0.705010  0.253670  Uiso  0.001267
    Ce1  Ce4+  1.0000  0.452190  0.738890  0.253670  Uiso  0.001267
    Ce1  Ce4+  1.0000  0.720640  0.772770  0.253670  Uiso  0.001267
    Ce1  Ce4+  1.0000  0.989090  0.806660  0.253670  Uiso  0.001267
    Ce1  Ce4+  1.0000  0.149860  0.973460  0.253670  Uiso  0.001267
    Ce1  Ce4+  1.0000  0.251510  0.168110  0.287490  Uiso  0.001267
    Ce1  Ce4+  1.0000  0.519960  0.201990  0.287490  Uiso  0.001267
    Ce1  Ce4+  1.0000  0.788410  0.235870  0.287490  Uiso  0.001267
    Ce1  Ce4+  1.0000  0.217630  0.436560  0.287490  Uiso  0.001267
    Ce1  Ce4+  1.0000  0.486080  0.470440  0.287490  Uiso  0.001267
    Ce1  Ce4+  1.0000  0.754530  0.504320  0.287490  Uiso  0.001267
    Ce1  Ce4+  1.0000  0.183740  0.705010  0.287490  Uiso  0.001267
    Ce1  Ce4+  1.0000  0.452190  0.738890  0.287490  Uiso  0.001267
    Ce1  Ce4+  1.0000  0.720640  0.772770  0.287490  Uiso  0.001267
    Ce1  Ce4+  1.0000  0.989090  0.806660  0.287490  Uiso  0.001267
    Ce1  Ce4+  1.0000  0.149860  0.973460  0.287490  Uiso  0.001267
    Ce1  Ce4+  1.0000  0.251510  0.168110  0.321310  Uiso  0.001267
    Ce1  Ce4+  1.0000  0.519960  0.201990  0.321310  Uiso  0.001267
    Ce1  Ce4+  1.0000  0.788410  0.235870  0.321310  Uiso  0.001267
    Ce1  Ce4+  1.0000  0.217630  0.436560  0.321310  Uiso  0.001267
    Ce1  Ce4+  1.0000  0.486080  0.470440  0.321310  Uiso  0.001267
    Ce1  Ce4+  1.0000  0.754530  0.504320  0.321310  Uiso  0.001267
    Ce1  Ce4+  1.0000  0.183740  0.705010  0.321310  Uiso  0.001267
    Ce1  Ce4+  1.0000  0.452190  0.738890  0.321310  Uiso  0.001267
    Ce1  Ce4+  1.0000  0.720640  0.772770  0.321310  Uiso  0.001267
    Ce1  Ce4+  1.0000  0.989090  0.806660  0.321310  Uiso  0.001267
    Ce1  Ce4+  1.0000  0.149860  0.973460  0.321310  Uiso  0.001267
    Ce1  Ce4+  1.0000  0.251510  0.168110  0.355140  Uiso  0.001267
    Ce1  Ce4+  1.0000  0.519960  0.201990  0.355140  Uiso  0.001267
    Ce1  Ce4+  1.0000  0.788410  0.235870  0.355140  Uiso  0.001267
    Ce1  Ce4+  1.0000  0.217630  0.436560  0.355140  Uiso  0.001267
    Ce1  Ce4+  1.0000  0.486080  0.470440  0.355140  Uiso  0.001267
    Ce1  Ce4+  1.0000  0.754530  0.504320  0.355140  Uiso  0.001267
    Ce1  Ce4+  1.0000  0.183740  0.705010  0.355140  Uiso  0.001267
    Ce1  Ce4+  1.0000  0.452190  0.738890  0.355140  Uiso  0.001267
    Ce1  Ce4+  1.0000  0.720640  0.772770  0.355140  Uiso  0.001267
    Ce1  Ce4+  1.0000  0.989090  0.806660  0.355140  Uiso  0.001267
    Ce1  Ce4+  1.0000  0.149860  0.973460  0.355140  Uiso  0.001267
    Ce1  Ce4+  1.0000  0.251510  0.168110  0.388960  Uiso  0.001267
    Ce1  Ce4+  1.0000  0.519960  0.201990  0.388960  Uiso  0.001267
    Ce1  Ce4+  1.0000  0.788410  0.235870  0.388960  Uiso  0.001267
    Ce1  Ce4+  1.0000  0.217630  0.436560  0.388960  Uiso  0.001267
    Ce1  Ce4+  1.0000  0.486080  0.470440  0.388960  Uiso  0.001267
    Ce1  Ce4+  1.0000  0.754530  0.504320  0.388960  Uiso  0.001267
    Ce1  Ce4+  1.0000  0.183740  0.705010  0.388960  Uiso  0.001267
    Ce1  Ce4+  1.0000  0.452190  0.738890  0.388960  Uiso  0.001267
    Ce1  Ce4+  1.0000  0.720640  0.772770  0.388960  Uiso  0.001267
    Ce1  Ce4+  1.0000  0.989090  0.806660  0.388960  Uiso  0.001267
    Ce1  Ce4+  1.0000  0.149860  0.973460  0.388960  Uiso  0.001267
    Ce1  Ce4+  1.0000  0.251510  0.168110  0.422780  Uiso  0.001267
    Ce1  Ce4+  1.0000  0.519960  0.201990  0.422780  Uiso  0.001267
    Ce1  Ce4+  1.0000  0.788410  0.235870  0.422780  Uiso  0.001267
    Ce1  Ce4+  1.0000  0.217630  0.436560  0.422780  Uiso  0.001267
    Ce1  Ce4+  1.0000  0.486080  0.470440  0.422780  Uiso  0.001267
    Ce1  Ce4+  1.0000  0.754530  0.504320  0.422780  Uiso  0.001267
    Ce1  Ce4+  1.0000  0.183740  0.705010  0.422780  Uiso  0.001267
    Ce1  Ce4+  1.0000  0.452190  0.738890  0.422780  Uiso  0.001267
    Ce1  Ce4+  1.0000  0.720640  0.772770  0.422780  Uiso  0.001267
    Ce1  Ce4+  1.0000  0.989090  0.806660  0.422780  Uiso  0.001267
    Ce1  Ce4+  1.0000  0.149860  0.973460  0.422780  Uiso  0.001267
    Ce1  Ce4+  1.0000  0.251510  0.168110  0.456600  Uiso  0.001267
    Ce1  Ce4+  1.0000  0.519960  0.201990  0.456600  Uiso  0.001267
    Ce1  Ce4+  1.0000  0.788410  0.235870  0.456600  Uiso  0.001267
    Ce1  Ce4+  1.0000  0.217630  0.436560  0.456600  Uiso  0.001267
    Ce1  Ce4+  1.0000  0.486080  0.470440  0.456600  Uiso  0.001267
    Ce1  Ce4+  1.0000  0.754530  0.504320  0.456600  Uiso  0.001267
    Ce1  Ce4+  1.0000  0.183740  0.705010  0.456600  Uiso  0.001267
    Ce1  Ce4+  1.0000  0.452190  0.738890  0.456600  Uiso  0.001267
    Ce1  Ce4+  1.0000  0.720640  0.772770  0.456600  Uiso  0.001267
    Ce1  Ce4+  1.0000  0.989090  0.806660  0.456600  Uiso  0.001267
    Ce1  Ce4+  1.0000  0.149860  0.973460  0.456600  Uiso  0.001267
    Ce1  Ce4+  1.0000  0.251510  0.168110  0.490430  Uiso  0.001267
    Ce1  Ce4+  1.0000  0.519960  0.201990  0.490430  Uiso  0.001267
    Ce1  Ce4+  1.0000  0.788410  0.235870  0.490430  Uiso  0.001267
    Ce1  Ce4+  1.0000  0.217630  0.436560  0.490430  Uiso  0.001267
    Ce1  Ce4+  1.0000  0.486080  0.470440  0.490430  Uiso  0.001267
    Ce1  Ce4+  1.0000  0.754530  0.504320  0.490430  Uiso  0.001267
    Ce1  Ce4+  1.0000  0.183740  0.705010  0.490430  Uiso  0.001267
    Ce1  Ce4+  1.0000  0.452190  0.738890  0.490430  Uiso  0.001267
    Ce1  Ce4+  1.0000  0.720640  0.772770  0.490430  Uiso  0.001267
    Ce1  Ce4+  1.0000  0.989090  0.806660  0.490430  Uiso  0.001267
    Ce1  Ce4+  1.0000  0.149860  0.973460  0.490430  Uiso  0.001267
    Ce1  Ce4+  1.0000  0.251510  0.168110  0.524250  Uiso  0.001267
    Ce1  Ce4+  1.0000  0.519960  0.201990  0.524250  Uiso  0.001267
    Ce1  Ce4+  1.0000  0.788410  0.235870  0.524250  Uiso  0.001267
    Ce1  Ce4+  1.0000  0.217630  0.436560  0.524250  Uiso  0.001267
    Ce1  Ce4+  1.0000  0.486080  0.470440  0.524250  Uiso  0.001267
    Ce1  Ce4+  1.0000  0.754530  0.504320  0.524250  Uiso  0.001267
    Ce1  Ce4+  1.0000  0.183740  0.705010  0.524250  Uiso  0.001267
    Ce1  Ce4+  1.0000  0.452190  0.738890  0.524250  Uiso  0.001267
    Ce1  Ce4+  1.0000  0.720640  0.772770  0.524250  Uiso  0.001267
    Ce1  Ce4+  1.0000  0.989090  0.806660  0.524250  Uiso  0.001267
    Ce1  Ce4+  1.0000  0.149860  0.973460  0.524250  Uiso  0.001267
    Ce1  Ce4+  1.0000  0.251510  0.168110  0.558070  Uiso  0.001267
    Ce1  Ce4+  1.0000  0.519960  0.201990  0.558070  Uiso  0.001267
    Ce1  Ce4+  1.0000  0.788410  0.235870  0.558070  Uiso  0.001267
    Ce1  Ce4+  1.0000  0.217630  0.436560  0.558070  Uiso  0.001267
    Ce1  Ce4+  1.0000  0.486080  0.470440  0.558070  Uiso  0.001267
    Ce1  Ce4+  1.0000  0.754530  0.504320  0.558070  Uiso  0.001267
    Ce1  Ce4+  1.0000  0.183740  0.705010  0.558070  Uiso  0.001267
    Ce1  Ce4+  1.0000  0.452190  0.738890  0.558070  Uiso  0.001267
    Ce1  Ce4+  1.0000  0.720640  0.772770  0.558070  Uiso  0.001267
    Ce1  Ce4+  1.0000  0.989090  0.806660  0.558070  Uiso  0.001267
    Ce1  Ce4+  1.0000  0.149860  0.973460  0.558070  Uiso  0.001267
    Ce1  Ce4+  1.0000  0.251510  0.168110  0.591890  Uiso  0.001267
    Ce1  Ce4+  1.0000  0.519960  0.201990  0.591890  Uiso  0.001267
    Ce1  Ce4+  1.0000  0.788410  0.235870  0.591890  Uiso  0.001267
    Ce1  Ce4+  1.0000  0.217630  0.436560  0.591890  Uiso  0.001267
    Ce1  Ce4+  1.0000  0.486080  0.470440  0.591890  Uiso  0.001267
    Ce1  Ce4+  1.0000  0.754530  0.504320  0.591890  Uiso  0.001267
    Ce1  Ce4+  1.0000  0.183740  0.705010  0.591890  Uiso  0.001267
    Ce1  Ce4+  1.0000  0.452190  0.738890  0.591890  Uiso  0.001267
    Ce1  Ce4+  1.0000  0.720640  0.772770  0.591890  Uiso  0.001267
    Ce1  Ce4+  1.0000  0.989090  0.806660  0.591890  Uiso  0.001267
    Ce1  Ce4+  1.0000  0.149860  0.973460  0.591890  Uiso  0.001267
    Ce1  Ce4+  1.0000  0.251510  0.168110  0.625720  Uiso  0.001267
    Ce1  Ce4+  1.0000  0.519960  0.201990  0.625720  Uiso  0.001267
    Ce1  Ce4+  1.0000  0.788410  0.235870  0.625720  Uiso  0.001267
    Ce1  Ce4+  1.0000  0.217630  0.436560  0.625720  Uiso  0.001267
    Ce1  Ce4+  1.0000  0.486080  0.470440  0.625720  Uiso  0.001267
    Ce1  Ce4+  1.0000  0.754530  0.504320  0.625720  Uiso  0.001267
    Ce1  Ce4+  1.0000  0.183740  0.705010  0.625720  Uiso  0.001267
    Ce1  Ce4+  1.0000  0.452190  0.738890  0.625720  Uiso  0.001267
    Ce1  Ce4+  1.0000  0.720640  0.772770  0.625720  Uiso  0.001267
    Ce1  Ce4+  1.0000  0.989090  0.806660  0.625720  Uiso  0.001267
    Ce1  Ce4+  1.0000  0.149860  0.973460  0.625720  Uiso  0.001267
    Ce1  Ce4+  1.0000  0.251510  0.168110  0.659540  Uiso  0.001267
    Ce1  Ce4+  1.0000  0.519960  0.201990  0.659540  Uiso  0.001267
    Ce1  Ce4+  1.0000  0.788410  0.235870  0.659540  Uiso  0.001267
    Ce1  Ce4+  1.0000  0.217630  0.436560  0.659540  Uiso  0.001267
    Ce1  Ce4+  1.0000  0.486080  0.470440  0.659540  Uiso  0.001267
    Ce1  Ce4+  1.0000  0.754530  0.504320  0.659540  Uiso  0.001267
    Ce1  Ce4+  1.0000  0.183740  0.705010  0.659540  Uiso  0.001267
    Ce1  Ce4+  1.0000  0.452190  0.738890  0.659540  Uiso  0.001267
    Ce1  Ce4+  1.0000  0.720640  0.772770  0.659540  Uiso  0.001267
    Ce1  Ce4+  1.0000  0.989090  0.806660  0.659540  Uiso  0.001267
    Ce1  Ce4+  1.0000  0.149860  0.973460  0.659540  Uiso  0.001267
    Ce1  Ce4+  1.0000  0.251510  0.168110  0.693360  Uiso  0.001267
    Ce1  Ce4+  1.0000  0.519960  0.201990  0.693360  Uiso  0.001267
    Ce1  Ce4+  1.0000  0.788410  0.235870  0.693360  Uiso  0.001267
    Ce1  Ce4+  1.0000  0.217630  0.436560  0.693360  Uiso  0.001267
    Ce1  Ce4+  1.0000  0.486080  0.470440  0.693360  Uiso  0.001267
    Ce1  Ce4+  1.0000  0.754530  0.504320  0.693360  Uiso  0.001267
    Ce1  Ce4+  1.0000  0.183740  0.705010  0.693360  Uiso  0.001267
    Ce1  Ce4+  1.0000  0.452190  0.738890  0.693360  Uiso  0.001267
    Ce1  Ce4+  1.0000  0.720640  0.772770  0.693360  Uiso  0.001267
    Ce1  Ce4+  1.0000  0.989090  0.806660  0.693360  Uiso  0.001267
    Ce1  Ce4+  1.0000  0.149860  0.973460  0.693360  Uiso  0.001267
    Ce1  Ce4+  1.0000  0.251510  0.168110  0.727180  Uiso  0.001267
    Ce1  Ce4+  1.0000  0.519960  0.201990  0.727180  Uiso  0.001267
    Ce1  Ce4+  1.0000  0.788410  0.235870  0.727180  Uiso  0.001267
    Ce1  Ce4+  1.0000  0.217630  0.436560  0.727180  Uiso  0.001267
    Ce1  Ce4+  1.0000  0.486080  0.470440  0.727180  Uiso  0.001267
    Ce1  Ce4+  1.0000  0.754530  0.504320  0.727180  Uiso  0.001267
    Ce1  Ce4+  1.0000  0.183740  0.705010  0.727180  Uiso  0.001267
    Ce1  Ce4+  1.0000  0.452190  0.738890  0.727180  Uiso  0.001267
    Ce1  Ce4+  1.0000  0.720640  0.772770  0.727180  Uiso  0.001267
    Ce1  Ce4+  1.0000  0.989090  0.806660  0.727180  Uiso  0.001267
    Ce1  Ce4+  1.0000  0.149860  0.973460  0.727180  Uiso  0.001267
    Ce1  Ce4+  1.0000  0.251510  0.168110  0.761010  Uiso  0.001267
    Ce1  Ce4+  1.0000  0.519960  0.201990  0.761010  Uiso  0.001267
    Ce1  Ce4+  1.0000  0.788410  0.235870  0.761010  Uiso  0.001267
    Ce1  Ce4+  1.0000  0.217630  0.436560  0.761010  Uiso  0.001267
    Ce1  Ce4+  1.0000  0.486080  0.470440  0.761010  Uiso  0.001267
    Ce1  Ce4+  1.0000  0.754530  0.504320  0.761010  Uiso  0.001267
    Ce1  Ce4+  1.0000  0.183740  0.705010  0.761010  Uiso  0.001267
    Ce1  Ce4+  1.0000  0.452190  0.738890  0.761010  Uiso  0.001267
    Ce1  Ce4+  1.0000  0.720640  0.772770  0.761010  Uiso  0.001267
    Ce1  Ce4+  1.0000  0.989090  0.806660  0.761010  Uiso  0.001267
    Ce1  Ce4+  1.0000  0.149860  0.973460  0.761010  Uiso  0.001267
    Ce1  Ce4+  1.0000  0.251510  0.168110  0.794830  Uiso  0.001267
    Ce1  Ce4+  1.0000  0.519960  0.201990  0.794830  Uiso  0.001267
    Ce1  Ce4+  1.0000  0.788410  0.235870  0.794830  Uiso  0.001267
    Ce1  Ce4+  1.0000  0.217630  0.436560  0.794830  Uiso  0.001267
    Ce1  Ce4+  1.0000  0.486080  0.470440  0.794830  Uiso  0.001267
    Ce1  Ce4+  1.0000  0.754530  0.504320  0.794830  Uiso  0.001267
    Ce1  Ce4+  1.0000  0.183740  0.705010  0.794830  Uiso  0.001267
    Ce1  Ce4+  1.0000  0.452190  0.738890  0.794830  Uiso  0.001267
    Ce1  Ce4+  1.0000  0.720640  0.772770  0.794830  Uiso  0.001267
    Ce1  Ce4+  1.0000  0.989090  0.806660  0.794830  Uiso  0.001267
    Ce1  Ce4+  1.0000  0.149860  0.973460  0.794830  Uiso  0.001267
    Ce1  Ce4+  1.0000  0.251510  0.168110  0.828650  Uiso  0.001267
    Ce1  Ce4+  1.0000  0.519960  0.201990  0.828650  Uiso  0.001267
    Ce1  Ce4+  1.0000  0.788410  0.235870  0.828650  Uiso  0.001267
    Ce1  Ce4+  1.0000  0.217630  0.436560  0.828650  Uiso  0.001267
    Ce1  Ce4+  1.0000  0.486080  0.470440  0.828650  Uiso  0.001267
    Ce1  Ce4+  1.0000  0.754530  0.504320  0.828650  Uiso  0.001267
    Ce1  Ce4+  1.0000  0.183740  0.705010  0.828650  Uiso  0.001267
    Ce1  Ce4+  1.0000  0.452190  0.738890  0.828650  Uiso  0.001267
    Ce1  Ce4+  1.0000  0.720640  0.772770  0.828650  Uiso  0.001267
    Ce1  Ce4+  1.0000  0.989090  0.806660  0.828650  Uiso  0.001267
    Ce1  Ce4+  1.0000  0.149860  0.973460  0.828650  Uiso  0.001267
    Ce1  Ce4+  1.0000  0.251510  0.168110  0.862470  Uiso  0.001267
    Ce1  Ce4+  1.0000  0.519960  0.201990  0.862470  Uiso  0.001267
    Ce1  Ce4+  1.0000  0.788410  0.235870  0.862470  Uiso  0.001267
    Ce1  Ce4+  1.0000  0.217630  0.436560  0.862470  Uiso  0.001267
    Ce1  Ce4+  1.0000  0.486080  0.470440  0.862470  Uiso  0.001267
    Ce1  Ce4+  1.0000  0.754530  0.504320  0.862470  Uiso  0.001267
    Ce1  Ce4+  1.0000  0.183740  0.705010  0.862470  Uiso  0.001267
    Ce1  Ce4+  1.0000  0.452190  0.738890  0.862470  Uiso  0.001267
    Ce1  Ce4+  1.0000  0.720640  0.772770  0.862470  Uiso  0.001267
    Ce1  Ce4+  1.0000  0.989090  0.806660  0.862470  Uiso  0.001267
    Ce1  Ce4+  1.0000  0.149860  0.973460  0.862470  Uiso  0.001267
    Ce1  Ce4+  1.0000  0.251510  0.168110  0.896300  Uiso  0.001267
    Ce1  Ce4+  1.0000  0.519960  0.201990  0.896300  Uiso  0.001267
    Ce1  Ce4+  1.0000  0.788410  0.235870  0.896300  Uiso  0.001267
    Ce1  Ce4+  1.0000  0.217630  0.436560  0.896300  Uiso  0.001267
    Ce1  Ce4+  1.0000  0.486080  0.470440  0.896300  Uiso  0.001267
    Ce1  Ce4+  1.0000  0.754530  0.504320  0.896300  Uiso  0.001267
    Ce1  Ce4+  1.0000  0.183740  0.705010  0.896300  Uiso  0.001267
    Ce1  Ce4+  1.0000  0.452190  0.738890  0.896300  Uiso  0.001267
    Ce1  Ce4+  1.0000  0.720640  0.772770  0.896300  Uiso  0.001267
    Ce1  Ce4+  1.0000  0.989090  0.806660  0.896300  Uiso  0.001267
    Ce1  Ce4+  1.0000  0.149860  0.973460  0.896300  Uiso  0.001267
    Ce1  Ce4+  1.0000  0.251510  0.168110  0.930120  Uiso  0.001267
    Ce1  Ce4+  1.0000  0.519960  0.201990  0.930120  Uiso  0.001267
    Ce1  Ce4+  1.0000  0.788410  0.235870  0.930120  Uiso  0.001267
    Ce1  Ce4+  1.0000  0.217630  0.436560  0.930120  Uiso  0.001267
    Ce1  Ce4+  1.0000  0.486080  0.470440  0.930120  Uiso  0.001267
    Ce1  Ce4+  1.0000  0.754530  0.504320  0.930120  Uiso  0.001267
    Ce1  Ce4+  1.0000  0.183740  0.705010  0.930120  Uiso  0.001267
    Ce1  Ce4+  1.0000  0.452190  0.738890  0.930120  Uiso  0.001267
    Ce1  Ce4+  1.0000  0.720640  0.772770  0.930120  Uiso  0.001267
    Ce1  Ce4+  1.0000  0.989090  0.806660  0.930120  Uiso  0.001267
    Ce1  Ce4+  1.0000  0.149860  0.973460  0.930120  Uiso  0.001267
    Ce1  Ce4+  1.0000  0.251510  0.168110  0.963940  Uiso  0.001267
    Ce1  Ce4+  1.0000  0.519960  0.201990  0.963940  Uiso  0.001267
    Ce1  Ce4+  1.0000  0.788410  0.235870  0.963940  Uiso  0.001267
    Ce1  Ce4+  1.0000  0.217630  0.436560  0.963940  Uiso  0.001267
    Ce1  Ce4+  1.0000  0.486080  0.470440  0.963940  Uiso  0.001267
    Ce1  Ce4+  1.0000  0.754530  0.504320  0.963940  Uiso  0.001267
    Ce1  Ce4+  1.0000  0.183740  0.705010  0.963940  Uiso  0.001267
    Ce1  Ce4+  1.0000  0.452190  0.738890  0.963940  Uiso  0.001267
    Ce1  Ce4+  1.0000  0.720640  0.772770  0.963940  Uiso  0.001267
    Ce1  Ce4+  1.0000  0.989090  0.806660  0.963940  Uiso  0.001267
    Ce1  Ce4+  1.0000  0.149860  0.973460  0.963940  Uiso  0.001267
    Ce1  Ce4+  1.0000  0.251510  0.168110  0.997760  Uiso  0.001267
    Ce1  Ce4+  1.0000  0.519960  0.201990  0.997760  Uiso  0.001267
    Ce1  Ce4+  1.0000  0.788410  0.235870  0.997760  Uiso  0.001267
    Ce1  Ce4+  1.0000  0.217630  0.436560  0.997760  Uiso  0.001267
    Ce1  Ce4+  1.0000  0.486080  0.470440  0.997760  Uiso  0.001267
    Ce1  Ce4+  1.0000  0.754530  0.504320  0.997760  Uiso  0.001267
    Ce1  Ce4+  1.0000  0.183740  0.705010  0.997760  Uiso  0.001267
    Ce1  Ce4+  1.0000  0.452190  0.738890  0.997760  Uiso  0.001267
    Ce1  Ce4+  1.0000  0.720640  0.772770  0.997760  Uiso  0.001267
    Ce1  Ce4+  1.0000  0.989090  0.806660  0.997760  Uiso  0.001267
    Ce1  Ce4+  1.0000  0.149860  0.973460  0.997760  Uiso  0.001267
    Ce1  Ce4+  1.0000  0.117280  0.151170  0.000000  Uiso  0.001267
    Ce1  Ce4+  1.0000  0.385730  0.185050  0.000000  Uiso  0.001267
    Ce1  Ce4+  1.0000  0.654180  0.218930  0.000000  Uiso  0.001267
    Ce1  Ce4+  1.0000  0.922630  0.252820  0.000000  Uiso  0.001267
    Ce1  Ce4+  1.0000  0.083400  0.419620  0.000000  Uiso  0.001267
    Ce1  Ce4+  1.0000  0.351850  0.453500  0.000000  Uiso  0.001267
    Ce1  Ce4+  1.0000  0.620300  0.487380  0.000000  Uiso  0.001267
    Ce1  Ce4+  1.0000  0.888750  0.521270  0.000000  Uiso  0.001267
    Ce1  Ce4+  1.0000  0.049520  0.688070  0.000000  Uiso  0.001267
    Ce1  Ce4+  1.0000  0.317970  0.721950  0.000000  Uiso  0.001267
    Ce1  Ce4+  1.0000  0.586420  0.755830  0.000000  Uiso  0.001267
    Ce1  Ce4+  1.0000  0.854870  0.789720  0.000000  Uiso  0.001267
    Ce1  Ce4+  1.0000  0.015630  0.956520  0.000000  Uiso  0.001267
    Ce1  Ce4+  1.0000  0.284090  0.990400  0.000000  Uiso  0.001267
    Ce1  Ce4+  1.0000  0.117280  0.151170  0.033820  Uiso  0.001267
    Ce1  Ce4+  1.0000  0.385730  0.185050  0.033820  Uiso  0.001267
    Ce1  Ce4+  1.0000  0.654180  0.218930  0.033820  Uiso  0.001267
    Ce1  Ce4+  1.0000  0.922630  0.252820  0.033820  Uiso  0.001267
    Ce1  Ce4+  1.0000  0.083400  0.419620  0.033820  Uiso  0.001267
    Ce1  Ce4+  1.0000  0.351850  0.453500  0.033820  Uiso  0.001267
    Ce1  Ce4+  1.0000  0.620300  0.487380  0.033820  Uiso  0.001267
    Ce1  Ce4+  1.0000  0.888750  0.521270  0.033820  Uiso  0.001267
    Ce1  Ce4+  1.0000  0.049520  0.688070  0.033820  Uiso  0.001267
    Ce1  Ce4+  1.0000  0.317970  0.721950  0.033820  Uiso  0.001267
    Ce1  Ce4+  1.0000  0.586420  0.755830  0.033820  Uiso  0.001267
    Ce1  Ce4+  1.0000  0.854870  0.789720  0.033820  Uiso  0.001267
    Ce1  Ce4+  1.0000  0.015630  0.956520  0.033820  Uiso  0.001267
    Ce1  Ce4+  1.0000  0.284090  0.990400  0.033820  Uiso  0.001267
    Ce1  Ce4+  1.0000  0.117280  0.151170  0.067650  Uiso  0.001267
    Ce1  Ce4+  1.0000  0.385730  0.185050  0.067650  Uiso  0.001267
    Ce1  Ce4+  1.0000  0.654180  0.218930  0.067650  Uiso  0.001267
    Ce1  Ce4+  1.0000  0.922630  0.252820  0.067650  Uiso  0.001267
    Ce1  Ce4+  1.0000  0.083400  0.419620  0.067650  Uiso  0.001267
    Ce1  Ce4+  1.0000  0.351850  0.453500  0.067650  Uiso  0.001267
    Ce1  Ce4+  1.0000  0.620300  0.487380  0.067650  Uiso  0.001267
    Ce1  Ce4+  1.0000  0.888750  0.521270  0.067650  Uiso  0.001267
    Ce1  Ce4+  1.0000  0.049520  0.688070  0.067650  Uiso  0.001267
    Ce1  Ce4+  1.0000  0.317970  0.721950  0.067650  Uiso  0.001267
    Ce1  Ce4+  1.0000  0.586420  0.755830  0.067650  Uiso  0.001267
    Ce1  Ce4+  1.0000  0.854870  0.789720  0.067650  Uiso  0.001267
    Ce1  Ce4+  1.0000  0.015630  0.956520  0.067650  Uiso  0.001267
    Ce1  Ce4+  1.0000  0.284090  0.990400  0.067650  Uiso  0.001267
    Ce1  Ce4+  1.0000  0.117280  0.151170  0.101470  Uiso  0.001267
    Ce1  Ce4+  1.0000  0.385730  0.185050  0.101470  Uiso  0.001267
    Ce1  Ce4+  1.0000  0.654180  0.218930  0.101470  Uiso  0.001267
    Ce1  Ce4+  1.0000  0.922630  0.252820  0.101470  Uiso  0.001267
    Ce1  Ce4+  1.0000  0.083400  0.419620  0.101470  Uiso  0.001267
    Ce1  Ce4+  1.0000  0.351850  0.453500  0.101470  Uiso  0.001267
    Ce1  Ce4+  1.0000  0.620300  0.487380  0.101470  Uiso  0.001267
    Ce1  Ce4+  1.0000  0.888750  0.521270  0.101470  Uiso  0.001267
    Ce1  Ce4+  1.0000  0.049520  0.688070  0.101470  Uiso  0.001267
    Ce1  Ce4+  1.0000  0.317970  0.721950  0.101470  Uiso  0.001267
    Ce1  Ce4+  1.0000  0.586420  0.755830  0.101470  Uiso  0.001267
    Ce1  Ce4+  1.0000  0.854870  0.789720  0.101470  Uiso  0.001267
    Ce1  Ce4+  1.0000  0.015630  0.956520  0.101470  Uiso  0.001267
    Ce1  Ce4+  1.0000  0.284090  0.990400  0.101470  Uiso  0.001267
    Ce1  Ce4+  1.0000  0.117280  0.151170  0.135290  Uiso  0.001267
    Ce1  Ce4+  1.0000  0.385730  0.185050  0.135290  Uiso  0.001267
    Ce1  Ce4+  1.0000  0.654180  0.218930  0.135290  Uiso  0.001267
    Ce1  Ce4+  1.0000  0.922630  0.252820  0.135290  Uiso  0.001267
    Ce1  Ce4+  1.0000  0.083400  0.419620  0.135290  Uiso  0.001267
    Ce1  Ce4+  1.0000  0.351850  0.453500  0.135290  Uiso  0.001267
    Ce1  Ce4+  1.0000  0.620300  0.487380  0.135290  Uiso  0.001267
    Ce1  Ce4+  1.0000  0.888750  0.521270  0.135290  Uiso  0.001267
    Ce1  Ce4+  1.0000  0.049520  0.688070  0.135290  Uiso  0.001267
    Ce1  Ce4+  1.0000  0.317970  0.721950  0.135290  Uiso  0.001267
    Ce1  Ce4+  1.0000  0.586420  0.755830  0.135290  Uiso  0.001267
    Ce1  Ce4+  1.0000  0.854870  0.789720  0.135290  Uiso  0.001267
    Ce1  Ce4+  1.0000  0.015630  0.956520  0.135290  Uiso  0.001267
    Ce1  Ce4+  1.0000  0.284090  0.990400  0.135290  Uiso  0.001267
    Ce1  Ce4+  1.0000  0.117280  0.151170  0.169110  Uiso  0.001267
    Ce1  Ce4+  1.0000  0.385730  0.185050  0.169110  Uiso  0.001267
    Ce1  Ce4+  1.0000  0.654180  0.218930  0.169110  Uiso  0.001267
    Ce1  Ce4+  1.0000  0.922630  0.252820  0.169110  Uiso  0.001267
    Ce1  Ce4+  1.0000  0.083400  0.419620  0.169110  Uiso  0.001267
    Ce1  Ce4+  1.0000  0.351850  0.453500  0.169110  Uiso  0.001267
    Ce1  Ce4+  1.0000  0.620300  0.487380  0.169110  Uiso  0.001267
    Ce1  Ce4+  1.0000  0.888750  0.521270  0.169110  Uiso  0.001267
    Ce1  Ce4+  1.0000  0.049520  0.688070  0.169110  Uiso  0.001267
    Ce1  Ce4+  1.0000  0.317970  0.721950  0.169110  Uiso  0.001267
    Ce1  Ce4+  1.0000  0.586420  0.755830  0.169110  Uiso  0.001267
    Ce1  Ce4+  1.0000  0.854870  0.789720  0.169110  Uiso  0.001267
    Ce1  Ce4+  1.0000  0.015630  0.956520  0.169110  Uiso  0.001267
    Ce1  Ce4+  1.0000  0.284090  0.990400  0.169110  Uiso  0.001267
    Ce1  Ce4+  1.0000  0.117280  0.151170  0.202940  Uiso  0.001267
    Ce1  Ce4+  1.0000  0.385730  0.185050  0.202940  Uiso  0.001267
    Ce1  Ce4+  1.0000  0.654180  0.218930  0.202940  Uiso  0.001267
    Ce1  Ce4+  1.0000  0.922630  0.252820  0.202940  Uiso  0.001267
    Ce1  Ce4+  1.0000  0.083400  0.419620  0.202940  Uiso  0.001267
    Ce1  Ce4+  1.0000  0.351850  0.453500  0.202940  Uiso  0.001267
    Ce1  Ce4+  1.0000  0.620300  0.487380  0.202940  Uiso  0.001267
    Ce1  Ce4+  1.0000  0.888750  0.521270  0.202940  Uiso  0.001267
    Ce1  Ce4+  1.0000  0.049520  0.688070  0.202940  Uiso  0.001267
    Ce1  Ce4+  1.0000  0.317970  0.721950  0.202940  Uiso  0.001267
    Ce1  Ce4+  1.0000  0.586420  0.755830  0.202940  Uiso  0.001267
    Ce1  Ce4+  1.0000  0.854870  0.789720  0.202940  Uiso  0.001267
    Ce1  Ce4+  1.0000  0.015630  0.956520  0.202940  Uiso  0.001267
    Ce1  Ce4+  1.0000  0.284090  0.990400  0.202940  Uiso  0.001267
    Ce1  Ce4+  1.0000  0.117280  0.151170  0.236760  Uiso  0.001267
    Ce1  Ce4+  1.0000  0.385730  0.185050  0.236760  Uiso  0.001267
    Ce1  Ce4+  1.0000  0.654180  0.218930  0.236760  Uiso  0.001267
    Ce1  Ce4+  1.0000  0.922630  0.252820  0.236760  Uiso  0.001267
    Ce1  Ce4+  1.0000  0.083400  0.419620  0.236760  Uiso  0.001267
    Ce1  Ce4+  1.0000  0.351850  0.453500  0.236760  Uiso  0.001267
    Ce1  Ce4+  1.0000  0.620300  0.487380  0.236760  Uiso  0.001267
    Ce1  Ce4+  1.0000  0.888750  0.521270  0.236760  Uiso  0.001267
    Ce1  Ce4+  1.0000  0.049520  0.688070  0.236760  Uiso  0.001267
    Ce1  Ce4+  1.0000  0.317970  0.721950  0.236760  Uiso  0.001267
    Ce1  Ce4+  1.0000  0.586420  0.755830  0.236760  Uiso  0.001267
    Ce1  Ce4+  1.0000  0.854870  0.789720  0.236760  Uiso  0.001267
    Ce1  Ce4+  1.0000  0.015630  0.956520  0.236760  Uiso  0.001267
    Ce1  Ce4+  1.0000  0.284090  0.990400  0.236760  Uiso  0.001267
    Ce1  Ce4+  1.0000  0.117280  0.151170  0.270580  Uiso  0.001267
    Ce1  Ce4+  1.0000  0.385730  0.185050  0.270580  Uiso  0.001267
    Ce1  Ce4+  1.0000  0.654180  0.218930  0.270580  Uiso  0.001267
    Ce1  Ce4+  1.0000  0.922630  0.252820  0.270580  Uiso  0.001267
    Ce1  Ce4+  1.0000  0.083400  0.419620  0.270580  Uiso  0.001267
    Ce1  Ce4+  1.0000  0.351850  0.453500  0.270580  Uiso  0.001267
    Ce1  Ce4+  1.0000  0.620300  0.487380  0.270580  Uiso  0.001267
    Ce1  Ce4+  1.0000  0.888750  0.521270  0.270580  Uiso  0.001267
    Ce1  Ce4+  1.0000  0.049520  0.688070  0.270580  Uiso  0.001267
    Ce1  Ce4+  1.0000  0.317970  0.721950  0.270580  Uiso  0.001267
    Ce1  Ce4+  1.0000  0.586420  0.755830  0.270580  Uiso  0.001267
    Ce1  Ce4+  1.0000  0.854870  0.789720  0.270580  Uiso  0.001267
    Ce1  Ce4+  1.0000  0.015630  0.956520  0.270580  Uiso  0.001267
    Ce1  Ce4+  1.0000  0.284090  0.990400  0.270580  Uiso  0.001267
    Ce1  Ce4+  1.0000  0.117280  0.151170  0.304400  Uiso  0.001267
    Ce1  Ce4+  1.0000  0.385730  0.185050  0.304400  Uiso  0.001267
    Ce1  Ce4+  1.0000  0.654180  0.218930  0.304400  Uiso  0.001267
    Ce1  Ce4+  1.0000  0.922630  0.252820  0.304400  Uiso  0.001267
    Ce1  Ce4+  1.0000  0.083400  0.419620  0.304400  Uiso  0.001267
    Ce1  Ce4+  1.0000  0.351850  0.453500  0.304400  Uiso  0.001267
    Ce1  Ce4+  1.0000  0.620300  0.487380  0.304400  Uiso  0.001267
    Ce1  Ce4+  1.0000  0.888750  0.521270  0.304400  Uiso  0.001267
    Ce1  Ce4+  1.0000  0.049520  0.688070  0.304400  Uiso  0.001267
    Ce1  Ce4+  1.0000  0.317970  0.721950  0.304400  Uiso  0.001267
    Ce1  Ce4+  1.0000  0.586420  0.755830  0.304400  Uiso  0.001267
    Ce1  Ce4+  1.0000  0.854870  0.789720  0.304400  Uiso  0.001267
    Ce1  Ce4+  1.0000  0.015630  0.956520  0.304400  Uiso  0.001267
    Ce1  Ce4+  1.0000  0.284090  0.990400  0.304400  Uiso  0.001267
    Ce1  Ce4+  1.0000  0.117280  0.151170  0.338230  Uiso  0.001267
    Ce1  Ce4+  1.0000  0.385730  0.185050  0.338230  Uiso  0.001267
    Ce1  Ce4+  1.0000  0.654180  0.218930  0.338230  Uiso  0.001267
    Ce1  Ce4+  1.0000  0.922630  0.252820  0.338230  Uiso  0.001267
    Ce1  Ce4+  1.0000  0.083400  0.419620  0.338230  Uiso  0.001267
    Ce1  Ce4+  1.0000  0.351850  0.453500  0.338230  Uiso  0.001267
    Ce1  Ce4+  1.0000  0.620300  0.487380  0.338230  Uiso  0.001267
    Ce1  Ce4+  1.0000  0.888750  0.521270  0.338230  Uiso  0.001267
    Ce1  Ce4+  1.0000  0.049520  0.688070  0.338230  Uiso  0.001267
    Ce1  Ce4+  1.0000  0.317970  0.721950  0.338230  Uiso  0.001267
    Ce1  Ce4+  1.0000  0.586420  0.755830  0.338230  Uiso  0.001267
    Ce1  Ce4+  1.0000  0.854870  0.789720  0.338230  Uiso  0.001267
    Ce1  Ce4+  1.0000  0.015630  0.956520  0.338230  Uiso  0.001267
    Ce1  Ce4+  1.0000  0.284090  0.990400  0.338230  Uiso  0.001267
    Ce1  Ce4+  1.0000  0.117280  0.151170  0.372050  Uiso  0.001267
    Ce1  Ce4+  1.0000  0.385730  0.185050  0.372050  Uiso  0.001267
    Ce1  Ce4+  1.0000  0.654180  0.218930  0.372050  Uiso  0.001267
    Ce1  Ce4+  1.0000  0.922630  0.252820  0.372050  Uiso  0.001267
    Ce1  Ce4+  1.0000  0.083400  0.419620  0.372050  Uiso  0.001267
    Ce1  Ce4+  1.0000  0.351850  0.453500  0.372050  Uiso  0.001267
    Ce1  Ce4+  1.0000  0.620300  0.487380  0.372050  Uiso  0.001267
    Ce1  Ce4+  1.0000  0.888750  0.521270  0.372050  Uiso  0.001267
    Ce1  Ce4+  1.0000  0.049520  0.688070  0.372050  Uiso  0.001267
    Ce1  Ce4+  1.0000  0.317970  0.721950  0.372050  Uiso  0.001267
    Ce1  Ce4+  1.0000  0.586420  0.755830  0.372050  Uiso  0.001267
    Ce1  Ce4+  1.0000  0.854870  0.789720  0.372050  Uiso  0.001267
    Ce1  Ce4+  1.0000  0.015630  0.956520  0.372050  Uiso  0.001267
    Ce1  Ce4+  1.0000  0.284090  0.990400  0.372050  Uiso  0.001267
    Ce1  Ce4+  1.0000  0.117280  0.151170  0.405870  Uiso  0.001267
    Ce1  Ce4+  1.0000  0.385730  0.185050  0.405870  Uiso  0.001267
    Ce1  Ce4+  1.0000  0.654180  0.218930  0.405870  Uiso  0.001267
    Ce1  Ce4+  1.0000  0.922630  0.252820  0.405870  Uiso  0.001267
    Ce1  Ce4+  1.0000  0.083400  0.419620  0.405870  Uiso  0.001267
    Ce1  Ce4+  1.0000  0.351850  0.453500  0.405870  Uiso  0.001267
    Ce1  Ce4+  1.0000  0.620300  0.487380  0.405870  Uiso  0.001267
    Ce1  Ce4+  1.0000  0.888750  0.521270  0.405870  Uiso  0.001267
    Ce1  Ce4+  1.0000  0.049520  0.688070  0.405870  Uiso  0.001267
    Ce1  Ce4+  1.0000  0.317970  0.721950  0.405870  Uiso  0.001267
    Ce1  Ce4+  1.0000  0.586420  0.755830  0.405870  Uiso  0.001267
    Ce1  Ce4+  1.0000  0.854870  0.789720  0.405870  Uiso  0.001267
    Ce1  Ce4+  1.0000  0.015630  0.956520  0.405870  Uiso  0.001267
    Ce1  Ce4+  1.0000  0.284090  0.990400  0.405870  Uiso  0.001267
    Ce1  Ce4+  1.0000  0.117280  0.151170  0.439690  Uiso  0.001267
    Ce1  Ce4+  1.0000  0.385730  0.185050  0.439690  Uiso  0.001267
    Ce1  Ce4+  1.0000  0.654180  0.218930  0.439690  Uiso  0.001267
    Ce1  Ce4+  1.0000  0.922630  0.252820  0.439690  Uiso  0.001267
    Ce1  Ce4+  1.0000  0.083400  0.419620  0.439690  Uiso  0.001267
    Ce1  Ce4+  1.0000  0.351850  0.453500  0.439690  Uiso  0.001267
    Ce1  Ce4+  1.0000  0.620300  0.487380  0.439690  Uiso  0.001267
    Ce1  Ce4+  1.0000  0.888750  0.521270  0.439690  Uiso  0.001267
    Ce1  Ce4+  1.0000  0.049520  0.688070  0.439690  Uiso  0.001267
    Ce1  Ce4+  1.0000  0.317970  0.721950  0.439690  Uiso  0.001267
    Ce1  Ce4+  1.0000  0.586420  0.755830  0.439690  Uiso  0.001267
    Ce1  Ce4+  1.0000  0.854870  0.789720  0.439690  Uiso  0.001267
    Ce1  Ce4+  1.0000  0.015630  0.956520  0.439690  Uiso  0.001267
    Ce1  Ce4+  1.0000  0.284090  0.990400  0.439690  Uiso  0.001267
    Ce1  Ce4+  1.0000  0.117280  0.151170  0.473520  Uiso  0.001267
    Ce1  Ce4+  1.0000  0.385730  0.185050  0.473520  Uiso  0.001267
    Ce1  Ce4+  1.0000  0.654180  0.218930  0.473520  Uiso  0.001267
    Ce1  Ce4+  1.0000  0.922630  0.252820  0.473520  Uiso  0.001267
    Ce1  Ce4+  1.0000  0.083400  0.419620  0.473520  Uiso  0.001267
    Ce1  Ce4+  1.0000  0.351850  0.453500  0.473520  Uiso  0.001267
    Ce1  Ce4+  1.0000  0.620300  0.487380  0.473520  Uiso  0.001267
    Ce1  Ce4+  1.0000  0.888750  0.521270  0.473520  Uiso  0.001267
    Ce1  Ce4+  1.0000  0.049520  0.688070  0.473520  Uiso  0.001267
    Ce1  Ce4+  1.0000  0.317970  0.721950  0.473520  Uiso  0.001267
    Ce1  Ce4+  1.0000  0.586420  0.755830  0.473520  Uiso  0.001267
    Ce1  Ce4+  1.0000  0.854870  0.789720  0.473520  Uiso  0.001267
    Ce1  Ce4+  1.0000  0.015630  0.956520  0.473520  Uiso  0.001267
    Ce1  Ce4+  1.0000  0.284090  0.990400  0.473520  Uiso  0.001267
    Ce1  Ce4+  1.0000  0.117280  0.151170  0.507340  Uiso  0.001267
    Ce1  Ce4+  1.0000  0.385730  0.185050  0.507340  Uiso  0.001267
    Ce1  Ce4+  1.0000  0.654180  0.218930  0.507340  Uiso  0.001267
    Ce1  Ce4+  1.0000  0.922630  0.252820  0.507340  Uiso  0.001267
    Ce1  Ce4+  1.0000  0.083400  0.419620  0.507340  Uiso  0.001267
    Ce1  Ce4+  1.0000  0.351850  0.453500  0.507340  Uiso  0.001267
    Ce1  Ce4+  1.0000  0.620300  0.487380  0.507340  Uiso  0.001267
    Ce1  Ce4+  1.0000  0.888750  0.521270  0.507340  Uiso  0.001267
    Ce1  Ce4+  1.0000  0.049520  0.688070  0.507340  Uiso  0.001267
    Ce1  Ce4+  1.0000  0.317970  0.721950  0.507340  Uiso  0.001267
    Ce1  Ce4+  1.0000  0.586420  0.755830  0.507340  Uiso  0.001267
    Ce1  Ce4+  1.0000  0.854870  0.789720  0.507340  Uiso  0.001267
    Ce1  Ce4+  1.0000  0.015630  0.956520  0.507340  Uiso  0.001267
    Ce1  Ce4+  1.0000  0.284090  0.990400  0.507340  Uiso  0.001267
    Ce1  Ce4+  1.0000  0.117280  0.151170  0.541160  Uiso  0.001267
    Ce1  Ce4+  1.0000  0.385730  0.185050  0.541160  Uiso  0.001267
    Ce1  Ce4+  1.0000  0.654180  0.218930  0.541160  Uiso  0.001267
    Ce1  Ce4+  1.0000  0.922630  0.252820  0.541160  Uiso  0.001267
    Ce1  Ce4+  1.0000  0.083400  0.419620  0.541160  Uiso  0.001267
    Ce1  Ce4+  1.0000  0.351850  0.453500  0.541160  Uiso  0.001267
    Ce1  Ce4+  1.0000  0.620300  0.487380  0.541160  Uiso  0.001267
    Ce1  Ce4+  1.0000  0.888750  0.521270  0.541160  Uiso  0.001267
    Ce1  Ce4+  1.0000  0.049520  0.688070  0.541160  Uiso  0.001267
    Ce1  Ce4+  1.0000  0.317970  0.721950  0.541160  Uiso  0.001267
    Ce1  Ce4+  1.0000  0.586420  0.755830  0.541160  Uiso  0.001267
    Ce1  Ce4+  1.0000  0.854870  0.789720  0.541160  Uiso  0.001267
    Ce1  Ce4+  1.0000  0.015630  0.956520  0.541160  Uiso  0.001267
    Ce1  Ce4+  1.0000  0.284090  0.990400  0.541160  Uiso  0.001267
    Ce1  Ce4+  1.0000  0.117280  0.151170  0.574980  Uiso  0.001267
    Ce1  Ce4+  1.0000  0.385730  0.185050  0.574980  Uiso  0.001267
    Ce1  Ce4+  1.0000  0.654180  0.218930  0.574980  Uiso  0.001267
    Ce1  Ce4+  1.0000  0.922630  0.252820  0.574980  Uiso  0.001267
    Ce1  Ce4+  1.0000  0.083400  0.419620  0.574980  Uiso  0.001267
    Ce1  Ce4+  1.0000  0.351850  0.453500  0.574980  Uiso  0.001267
    Ce1  Ce4+  1.0000  0.620300  0.487380  0.574980  Uiso  0.001267
    Ce1  Ce4+  1.0000  0.888750  0.521270  0.574980  Uiso  0.001267
    Ce1  Ce4+  1.0000  0.049520  0.688070  0.574980  Uiso  0.001267
    Ce1  Ce4+  1.0000  0.317970  0.721950  0.574980  Uiso  0.001267
    Ce1  Ce4+  1.0000  0.586420  0.755830  0.574980  Uiso  0.001267
    Ce1  Ce4+  1.0000  0.854870  0.789720  0.574980  Uiso  0.001267
    Ce1  Ce4+  1.0000  0.015630  0.956520  0.574980  Uiso  0.001267
    Ce1  Ce4+  1.0000  0.284090  0.990400  0.574980  Uiso  0.001267
    Ce1  Ce4+  1.0000  0.117280  0.151170  0.608810  Uiso  0.001267
    Ce1  Ce4+  1.0000  0.385730  0.185050  0.608810  Uiso  0.001267
    Ce1  Ce4+  1.0000  0.654180  0.218930  0.608810  Uiso  0.001267
    Ce1  Ce4+  1.0000  0.922630  0.252820  0.608810  Uiso  0.001267
    Ce1  Ce4+  1.0000  0.083400  0.419620  0.608810  Uiso  0.001267
    Ce1  Ce4+  1.0000  0.351850  0.453500  0.608810  Uiso  0.001267
    Ce1  Ce4+  1.0000  0.620300  0.487380  0.608810  Uiso  0.001267
    Ce1  Ce4+  1.0000  0.888750  0.521270  0.608810  Uiso  0.001267
    Ce1  Ce4+  1.0000  0.049520  0.688070  0.608810  Uiso  0.001267
    Ce1  Ce4+  1.0000  0.317970  0.721950  0.608810  Uiso  0.001267
    Ce1  Ce4+  1.0000  0.586420  0.755830  0.608810  Uiso  0.001267
    Ce1  Ce4+  1.0000  0.854870  0.789720  0.608810  Uiso  0.001267
    Ce1  Ce4+  1.0000  0.015630  0.956520  0.608810  Uiso  0.001267
    Ce1  Ce4+  1.0000  0.284090  0.990400  0.608810  Uiso  0.001267
    Ce1  Ce4+  1.0000  0.117280  0.151170  0.642630  Uiso  0.001267
    Ce1  Ce4+  1.0000  0.385730  0.185050  0.642630  Uiso  0.001267
    Ce1  Ce4+  1.0000  0.654180  0.218930  0.642630  Uiso  0.001267
    Ce1  Ce4+  1.0000  0.922630  0.252820  0.642630  Uiso  0.001267
    Ce1  Ce4+  1.0000  0.083400  0.419620  0.642630  Uiso  0.001267
    Ce1  Ce4+  1.0000  0.351850  0.453500  0.642630  Uiso  0.001267
    Ce1  Ce4+  1.0000  0.620300  0.487380  0.642630  Uiso  0.001267
    Ce1  Ce4+  1.0000  0.888750  0.521270  0.642630  Uiso  0.001267
    Ce1  Ce4+  1.0000  0.049520  0.688070  0.642630  Uiso  0.001267
    Ce1  Ce4+  1.0000  0.317970  0.721950  0.642630  Uiso  0.001267
    Ce1  Ce4+  1.0000  0.586420  0.755830  0.642630  Uiso  0.001267
    Ce1  Ce4+  1.0000  0.854870  0.789720  0.642630  Uiso  0.001267
    Ce1  Ce4+  1.0000  0.015630  0.956520  0.642630  Uiso  0.001267
    Ce1  Ce4+  1.0000  0.284090  0.990400  0.642630  Uiso  0.001267
    Ce1  Ce4+  1.0000  0.117280  0.151170  0.676450  Uiso  0.001267
    Ce1  Ce4+  1.0000  0.385730  0.185050  0.676450  Uiso  0.001267
    Ce1  Ce4+  1.0000  0.654180  0.218930  0.676450  Uiso  0.001267
    Ce1  Ce4+  1.0000  0.922630  0.252820  0.676450  Uiso  0.001267
    Ce1  Ce4+  1.0000  0.083400  0.419620  0.676450  Uiso  0.001267
    Ce1  Ce4+  1.0000  0.351850  0.453500  0.676450  Uiso  0.001267
    Ce1  Ce4+  1.0000  0.620300  0.487380  0.676450  Uiso  0.001267
    Ce1  Ce4+  1.0000  0.888750  0.521270  0.676450  Uiso  0.001267
    Ce1  Ce4+  1.0000  0.049520  0.688070  0.676450  Uiso  0.001267
    Ce1  Ce4+  1.0000  0.317970  0.721950  0.676450  Uiso  0.001267
    Ce1  Ce4+  1.0000  0.586420  0.755830  0.676450  Uiso  0.001267
    Ce1  Ce4+  1.0000  0.854870  0.789720  0.676450  Uiso  0.001267
    Ce1  Ce4+  1.0000  0.015630  0.956520  0.676450  Uiso  0.001267
    Ce1  Ce4+  1.0000  0.284090  0.990400  0.676450  Uiso  0.001267
    Ce1  Ce4+  1.0000  0.117280  0.151170  0.710270  Uiso  0.001267
    Ce1  Ce4+  1.0000  0.385730  0.185050  0.710270  Uiso  0.001267
    Ce1  Ce4+  1.0000  0.654180  0.218930  0.710270  Uiso  0.001267
    Ce1  Ce4+  1.0000  0.922630  0.252820  0.710270  Uiso  0.001267
    Ce1  Ce4+  1.0000  0.083400  0.419620  0.710270  Uiso  0.001267
    Ce1  Ce4+  1.0000  0.351850  0.453500  0.710270  Uiso  0.001267
    Ce1  Ce4+  1.0000  0.620300  0.487380  0.710270  Uiso  0.001267
    Ce1  Ce4+  1.0000  0.888750  0.521270  0.710270  Uiso  0.001267
    Ce1  Ce4+  1.0000  0.049520  0.688070  0.710270  Uiso  0.001267
    Ce1  Ce4+  1.0000  0.317970  0.721950  0.710270  Uiso  0.001267
    Ce1  Ce4+  1.0000  0.586420  0.755830  0.710270  Uiso  0.001267
    Ce1  Ce4+  1.0000  0.854870  0.789720  0.710270  Uiso  0.001267
    Ce1  Ce4+  1.0000  0.015630  0.956520  0.710270  Uiso  0.001267
    Ce1  Ce4+  1.0000  0.284090  0.990400  0.710270  Uiso  0.001267
    Ce1  Ce4+  1.0000  0.117280  0.151170  0.744100  Uiso  0.001267
    Ce1  Ce4+  1.0000  0.385730  0.185050  0.744100  Uiso  0.001267
    Ce1  Ce4+  1.0000  0.654180  0.218930  0.744100  Uiso  0.001267
    Ce1  Ce4+  1.0000  0.922630  0.252820  0.744100  Uiso  0.001267
    Ce1  Ce4+  1.0000  0.083400  0.419620  0.744100  Uiso  0.001267
    Ce1  Ce4+  1.0000  0.351850  0.453500  0.744100  Uiso  0.001267
    Ce1  Ce4+  1.0000  0.620300  0.487380  0.744100  Uiso  0.001267
    Ce1  Ce4+  1.0000  0.888750  0.521270  0.744100  Uiso  0.001267
    Ce1  Ce4+  1.0000  0.049520  0.688070  0.744100  Uiso  0.001267
    Ce1  Ce4+  1.0000  0.317970  0.721950  0.744100  Uiso  0.001267
    Ce1  Ce4+  1.0000  0.586420  0.755830  0.744100  Uiso  0.001267
    Ce1  Ce4+  1.0000  0.854870  0.789720  0.744100  Uiso  0.001267
    Ce1  Ce4+  1.0000  0.015630  0.956520  0.744100  Uiso  0.001267
    Ce1  Ce4+  1.0000  0.284090  0.990400  0.744100  Uiso  0.001267
    Ce1  Ce4+  1.0000  0.117280  0.151170  0.777920  Uiso  0.001267
    Ce1  Ce4+  1.0000  0.385730  0.185050  0.777920  Uiso  0.001267
    Ce1  Ce4+  1.0000  0.654180  0.218930  0.777920  Uiso  0.001267
    Ce1  Ce4+  1.0000  0.922630  0.252820  0.777920  Uiso  0.001267
    Ce1  Ce4+  1.0000  0.083400  0.419620  0.777920  Uiso  0.001267
    Ce1  Ce4+  1.0000  0.351850  0.453500  0.777920  Uiso  0.001267
    Ce1  Ce4+  1.0000  0.620300  0.487380  0.777920  Uiso  0.001267
    Ce1  Ce4+  1.0000  0.888750  0.521270  0.777920  Uiso  0.001267
    Ce1  Ce4+  1.0000  0.049520  0.688070  0.777920  Uiso  0.001267
    Ce1  Ce4+  1.0000  0.317970  0.721950  0.777920  Uiso  0.001267
    Ce1  Ce4+  1.0000  0.586420  0.755830  0.777920  Uiso  0.001267
    Ce1  Ce4+  1.0000  0.854870  0.789720  0.777920  Uiso  0.001267
    Ce1  Ce4+  1.0000  0.015630  0.956520  0.777920  Uiso  0.001267
    Ce1  Ce4+  1.0000  0.284090  0.990400  0.777920  Uiso  0.001267
    Ce1  Ce4+  1.0000  0.117280  0.151170  0.811740  Uiso  0.001267
    Ce1  Ce4+  1.0000  0.385730  0.185050  0.811740  Uiso  0.001267
    Ce1  Ce4+  1.0000  0.654180  0.218930  0.811740  Uiso  0.001267
    Ce1  Ce4+  1.0000  0.922630  0.252820  0.811740  Uiso  0.001267
    Ce1  Ce4+  1.0000  0.083400  0.419620  0.811740  Uiso  0.001267
    Ce1  Ce4+  1.0000  0.351850  0.453500  0.811740  Uiso  0.001267
    Ce1  Ce4+  1.0000  0.620300  0.487380  0.811740  Uiso  0.001267
    Ce1  Ce4+  1.0000  0.888750  0.521270  0.811740  Uiso  0.001267
    Ce1  Ce4+  1.0000  0.049520  0.688070  0.811740  Uiso  0.001267
    Ce1  Ce4+  1.0000  0.317970  0.721950  0.811740  Uiso  0.001267
    Ce1  Ce4+  1.0000  0.586420  0.755830  0.811740  Uiso  0.001267
    Ce1  Ce4+  1.0000  0.854870  0.789720  0.811740  Uiso  0.001267
    Ce1  Ce4+  1.0000  0.015630  0.956520  0.811740  Uiso  0.001267
    Ce1  Ce4+  1.0000  0.284090  0.990400  0.811740  Uiso  0.001267
    Ce1  Ce4+  1.0000  0.117280  0.151170  0.845560  Uiso  0.001267
    Ce1  Ce4+  1.0000  0.385730  0.185050  0.845560  Uiso  0.001267
    Ce1  Ce4+  1.0000  0.654180  0.218930  0.845560  Uiso  0.001267
    Ce1  Ce4+  1.0000  0.922630  0.252820  0.845560  Uiso  0.001267
    Ce1  Ce4+  1.0000  0.083400  0.419620  0.845560  Uiso  0.001267
    Ce1  Ce4+  1.0000  0.351850  0.453500  0.845560  Uiso  0.001267
    Ce1  Ce4+  1.0000  0.620300  0.487380  0.845560  Uiso  0.001267
    Ce1  Ce4+  1.0000  0.888750  0.521270  0.845560  Uiso  0.001267
    Ce1  Ce4+  1.0000  0.049520  0.688070  0.845560  Uiso  0.001267
    Ce1  Ce4+  1.0000  0.317970  0.721950  0.845560  Uiso  0.001267
    Ce1  Ce4+  1.0000  0.586420  0.755830  0.845560  Uiso  0.001267
    Ce1  Ce4+  1.0000  0.854870  0.789720  0.845560  Uiso  0.001267
    Ce1  Ce4+  1.0000  0.015630  0.956520  0.845560  Uiso  0.001267
    Ce1  Ce4+  1.0000  0.284090  0.990400  0.845560  Uiso  0.001267
    Ce1  Ce4+  1.0000  0.117280  0.151170  0.879390  Uiso  0.001267
    Ce1  Ce4+  1.0000  0.385730  0.185050  0.879390  Uiso  0.001267
    Ce1  Ce4+  1.0000  0.654180  0.218930  0.879390  Uiso  0.001267
    Ce1  Ce4+  1.0000  0.922630  0.252820  0.879390  Uiso  0.001267
    Ce1  Ce4+  1.0000  0.083400  0.419620  0.879390  Uiso  0.001267
    Ce1  Ce4+  1.0000  0.351850  0.453500  0.879390  Uiso  0.001267
    Ce1  Ce4+  1.0000  0.620300  0.487380  0.879390  Uiso  0.001267
    Ce1  Ce4+  1.0000  0.888750  0.521270  0.879390  Uiso  0.001267
    Ce1  Ce4+  1.0000  0.049520  0.688070  0.879390  Uiso  0.001267
    Ce1  Ce4+  1.0000  0.317970  0.721950  0.879390  Uiso  0.001267
    Ce1  Ce4+  1.0000  0.586420  0.755830  0.879390  Uiso  0.001267
    Ce1  Ce4+  1.0000  0.854870  0.789720  0.879390  Uiso  0.001267
    Ce1  Ce4+  1.0000  0.015630  0.956520  0.879390  Uiso  0.001267
    Ce1  Ce4+  1.0000  0.284090  0.990400  0.879390  Uiso  0.001267
    Ce1  Ce4+  1.0000  0.117280  0.151170  0.913210  Uiso  0.001267
    Ce1  Ce4+  1.0000  0.385730  0.185050  0.913210  Uiso  0.001267
    Ce1  Ce4+  1.0000  0.654180  0.218930  0.913210  Uiso  0.001267
    Ce1  Ce4+  1.0000  0.922630  0.252820  0.913210  Uiso  0.001267
    Ce1  Ce4+  1.0000  0.083400  0.419620  0.913210  Uiso  0.001267
    Ce1  Ce4+  1.0000  0.351850  0.453500  0.913210  Uiso  0.001267
    Ce1  Ce4+  1.0000  0.620300  0.487380  0.913210  Uiso  0.001267
    Ce1  Ce4+  1.0000  0.888750  0.521270  0.913210  Uiso  0.001267
    Ce1  Ce4+  1.0000  0.049520  0.688070  0.913210  Uiso  0.001267
    Ce1  Ce4+  1.0000  0.317970  0.721950  0.913210  Uiso  0.001267
    Ce1  Ce4+  1.0000  0.586420  0.755830  0.913210  Uiso  0.001267
    Ce1  Ce4+  1.0000  0.854870  0.789720  0.913210  Uiso  0.001267
    Ce1  Ce4+  1.0000  0.015630  0.956520  0.913210  Uiso  0.001267
    Ce1  Ce4+  1.0000  0.284090  0.990400  0.913210  Uiso  0.001267
    Ce1  Ce4+  1.0000  0.117280  0.151170  0.947030  Uiso  0.001267
    Ce1  Ce4+  1.0000  0.385730  0.185050  0.947030  Uiso  0.001267
    Ce1  Ce4+  1.0000  0.654180  0.218930  0.947030  Uiso  0.001267
    Ce1  Ce4+  1.0000  0.922630  0.252820  0.947030  Uiso  0.001267
    Ce1  Ce4+  1.0000  0.083400  0.419620  0.947030  Uiso  0.001267
    Ce1  Ce4+  1.0000  0.351850  0.453500  0.947030  Uiso  0.001267
    Ce1  Ce4+  1.0000  0.620300  0.487380  0.947030  Uiso  0.001267
    Ce1  Ce4+  1.0000  0.888750  0.521270  0.947030  Uiso  0.001267
    Ce1  Ce4+  1.0000  0.049520  0.688070  0.947030  Uiso  0.001267
    Ce1  Ce4+  1.0000  0.317970  0.721950  0.947030  Uiso  0.001267
    Ce1  Ce4+  1.0000  0.586420  0.755830  0.947030  Uiso  0.001267
    Ce1  Ce4+  1.0000  0.854870  0.789720  0.947030  Uiso  0.001267
    Ce1  Ce4+  1.0000  0.015630  0.956520  0.947030  Uiso  0.001267
    Ce1  Ce4+  1.0000  0.284090  0.990400  0.947030  Uiso  0.001267
    Ce1  Ce4+  1.0000  0.117280  0.151170  0.980850  Uiso  0.001267
    Ce1  Ce4+  1.0000  0.385730  0.185050  0.980850  Uiso  0.001267
    Ce1  Ce4+  1.0000  0.654180  0.218930  0.980850  Uiso  0.001267
    Ce1  Ce4+  1.0000  0.922630  0.252820  0.980850  Uiso  0.001267
    Ce1  Ce4+  1.0000  0.083400  0.419620  0.980850  Uiso  0.001267
    Ce1  Ce4+  1.0000  0.351850  0.453500  0.980850  Uiso  0.001267
    Ce1  Ce4+  1.0000  0.620300  0.487380  0.980850  Uiso  0.001267
    Ce1  Ce4+  1.0000  0.888750  0.521270  0.980850  Uiso  0.001267
    Ce1  Ce4+  1.0000  0.049520  0.688070  0.980850  Uiso  0.001267
    Ce1  Ce4+  1.0000  0.317970  0.721950  0.980850  Uiso  0.001267
    Ce1  Ce4+  1.0000  0.586420  0.755830  0.980850  Uiso  0.001267
    Ce1  Ce4+  1.0000  0.854870  0.789720  0.980850  Uiso  0.001267
    Ce1  Ce4+  1.0000  0.015630  0.956520  0.980850  Uiso  0.001267
    Ce1  Ce4+  1.0000  0.284090  0.990400  0.980850  Uiso  0.001267
    Ce1  Ce4+  1.0000  0.134230  0.016940  0.016910  Uiso  0.001267
    Ce1  Ce4+  1.0000  0.402680  0.050820  0.016910  Uiso  0.001267
    Ce1  Ce4+  1.0000  0.671130  0.084710  0.016910  Uiso  0.001267
    Ce1  Ce4+  1.0000  0.939580  0.118590  0.016910  Uiso  0.001267
    Ce1  Ce4+  1.0000  0.100340  0.285390  0.016910  Uiso  0.001267
    Ce1  Ce4+  1.0000  0.368790  0.319270  0.016910  Uiso  0.001267
    Ce1  Ce4+  1.0000  0.637240  0.353160  0.016910  Uiso  0.001267
    Ce1  Ce4+  1.0000  0.905690  0.387040  0.016910  Uiso  0.001267
    Ce1  Ce4+  1.0000  0.066460  0.553840  0.016910  Uiso  0.001267
    Ce1  Ce4+  1.0000  0.334910  0.587720  0.016910  Uiso  0.001267
    Ce1  Ce4+  1.0000  0.603360  0.621610  0.016910  Uiso  0.001267
    Ce1  Ce4+  1.0000  0.871810  0.655490  0.016910  Uiso  0.001267
    Ce1  Ce4+  1.0000  0.032580  0.822290  0.016910  Uiso  0.001267
    Ce1  Ce4+  1.0000  0.301030  0.856170  0.016910  Uiso  0.001267
    Ce1  Ce4+  1.0000  0.569480  0.890060  0.016910  Uiso  0.001267
    Ce1  Ce4+  1.0000  0.837930  0.923940  0.016910  Uiso  0.001267
    Ce1  Ce4+  1.0000  0.134230  0.016940  0.050730  Uiso  0.001267
    Ce1  Ce4+  1.0000  0.402680  0.050820  0.050730  Uiso  0.001267
    Ce1  Ce4+  1.0000  0.671130  0.084710  0.050730  Uiso  0.001267
    Ce1  Ce4+  1.0000  0.939580  0.118590  0.050730  Uiso  0.001267
    Ce1  Ce4+  1.0000  0.100340  0.285390  0.050730  Uiso  0.001267
    Ce1  Ce4+  1.0000  0.368790  0.319270  0.050730  Uiso  0.001267
    Ce1  Ce4+  1.0000  0.637240  0.353160  0.050730  Uiso  0.001267
    Ce1  Ce4+  1.0000  0.905690  0.387040  0.050730  Uiso  0.001267
    Ce1  Ce4+  1.0000  0.066460  0.553840  0.050730  Uiso  0.001267
    Ce1  Ce4+  1.0000  0.334910  0.587720  0.050730  Uiso  0.001267
    Ce1  Ce4+  1.0000  0.603360  0.621610  0.050730  Uiso  0.001267
    Ce1  Ce4+  1.0000  0.871810  0.655490  0.050730  Uiso  0.001267
    Ce1  Ce4+  1.0000  0.032580  0.822290  0.050730  Uiso  0.001267
    Ce1  Ce4+  1.0000  0.301030  0.856170  0.050730  Uiso  0.001267
    Ce1  Ce4+  1.0000  0.569480  0.890060  0.050730  Uiso  0.001267
    Ce1  Ce4+  1.0000  0.837930  0.923940  0.050730  Uiso  0.001267
    Ce1  Ce4+  1.0000  0.134230  0.016940  0.084560  Uiso  0.001267
    Ce1  Ce4+  1.0000  0.402680  0.050820  0.084560  Uiso  0.001267
    Ce1  Ce4+  1.0000  0.671130  0.084710  0.084560  Uiso  0.001267
    Ce1  Ce4+  1.0000  0.939580  0.118590  0.084560  Uiso  0.001267
    Ce1  Ce4+  1.0000  0.100340  0.285390  0.084560  Uiso  0.001267
    Ce1  Ce4+  1.0000  0.368790  0.319270  0.084560  Uiso  0.001267
    Ce1  Ce4+  1.0000  0.637240  0.353160  0.084560  Uiso  0.001267
    Ce1  Ce4+  1.0000  0.905690  0.387040  0.084560  Uiso  0.001267
    Ce1  Ce4+  1.0000  0.066460  0.553840  0.084560  Uiso  0.001267
    Ce1  Ce4+  1.0000  0.334910  0.587720  0.084560  Uiso  0.001267
    Ce1  Ce4+  1.0000  0.603360  0.621610  0.084560  Uiso  0.001267
    Ce1  Ce4+  1.0000  0.871810  0.655490  0.084560  Uiso  0.001267
    Ce1  Ce4+  1.0000  0.032580  0.822290  0.084560  Uiso  0.001267
    Ce1  Ce4+  1.0000  0.301030  0.856170  0.084560  Uiso  0.001267
    Ce1  Ce4+  1.0000  0.569480  0.890060  0.084560  Uiso  0.001267
    Ce1  Ce4+  1.0000  0.837930  0.923940  0.084560  Uiso  0.001267
    Ce1  Ce4+  1.0000  0.134230  0.016940  0.118380  Uiso  0.001267
    Ce1  Ce4+  1.0000  0.402680  0.050820  0.118380  Uiso  0.001267
    Ce1  Ce4+  1.0000  0.671130  0.084710  0.118380  Uiso  0.001267
    Ce1  Ce4+  1.0000  0.939580  0.118590  0.118380  Uiso  0.001267
    Ce1  Ce4+  1.0000  0.100340  0.285390  0.118380  Uiso  0.001267
    Ce1  Ce4+  1.0000  0.368790  0.319270  0.118380  Uiso  0.001267
    Ce1  Ce4+  1.0000  0.637240  0.353160  0.118380  Uiso  0.001267
    Ce1  Ce4+  1.0000  0.905690  0.387040  0.118380  Uiso  0.001267
    Ce1  Ce4+  1.0000  0.066460  0.553840  0.118380  Uiso  0.001267
    Ce1  Ce4+  1.0000  0.334910  0.587720  0.118380  Uiso  0.001267
    Ce1  Ce4+  1.0000  0.603360  0.621610  0.118380  Uiso  0.001267
    Ce1  Ce4+  1.0000  0.871810  0.655490  0.118380  Uiso  0.001267
    Ce1  Ce4+  1.0000  0.032580  0.822290  0.118380  Uiso  0.001267
    Ce1  Ce4+  1.0000  0.301030  0.856170  0.118380  Uiso  0.001267
    Ce1  Ce4+  1.0000  0.569480  0.890060  0.118380  Uiso  0.001267
    Ce1  Ce4+  1.0000  0.837930  0.923940  0.118380  Uiso  0.001267
    Ce1  Ce4+  1.0000  0.134230  0.016940  0.152200  Uiso  0.001267
    Ce1  Ce4+  1.0000  0.402680  0.050820  0.152200  Uiso  0.001267
    Ce1  Ce4+  1.0000  0.671130  0.084710  0.152200  Uiso  0.001267
    Ce1  Ce4+  1.0000  0.939580  0.118590  0.152200  Uiso  0.001267
    Ce1  Ce4+  1.0000  0.100340  0.285390  0.152200  Uiso  0.001267
    Ce1  Ce4+  1.0000  0.368790  0.319270  0.152200  Uiso  0.001267
    Ce1  Ce4+  1.0000  0.637240  0.353160  0.152200  Uiso  0.001267
    Ce1  Ce4+  1.0000  0.905690  0.387040  0.152200  Uiso  0.001267
    Ce1  Ce4+  1.0000  0.066460  0.553840  0.152200  Uiso  0.001267
    Ce1  Ce4+  1.0000  0.334910  0.587720  0.152200  Uiso  0.001267
    Ce1  Ce4+  1.0000  0.603360  0.621610  0.152200  Uiso  0.001267
    Ce1  Ce4+  1.0000  0.871810  0.655490  0.152200  Uiso  0.001267
    Ce1  Ce4+  1.0000  0.032580  0.822290  0.152200  Uiso  0.001267
    Ce1  Ce4+  1.0000  0.301030  0.856170  0.152200  Uiso  0.001267
    Ce1  Ce4+  1.0000  0.569480  0.890060  0.152200  Uiso  0.001267
    Ce1  Ce4+  1.0000  0.837930  0.923940  0.152200  Uiso  0.001267
    Ce1  Ce4+  1.0000  0.134230  0.016940  0.186020  Uiso  0.001267
    Ce1  Ce4+  1.0000  0.402680  0.050820  0.186020  Uiso  0.001267
    Ce1  Ce4+  1.0000  0.671130  0.084710  0.186020  Uiso  0.001267
    Ce1  Ce4+  1.0000  0.939580  0.118590  0.186020  Uiso  0.001267
    Ce1  Ce4+  1.0000  0.100340  0.285390  0.186020  Uiso  0.001267
    Ce1  Ce4+  1.0000  0.368790  0.319270  0.186020  Uiso  0.001267
    Ce1  Ce4+  1.0000  0.637240  0.353160  0.186020  Uiso  0.001267
    Ce1  Ce4+  1.0000  0.905690  0.387040  0.186020  Uiso  0.001267
    Ce1  Ce4+  1.0000  0.066460  0.553840  0.186020  Uiso  0.001267
    Ce1  Ce4+  1.0000  0.334910  0.587720  0.186020  Uiso  0.001267
    Ce1  Ce4+  1.0000  0.603360  0.621610  0.186020  Uiso  0.001267
    Ce1  Ce4+  1.0000  0.871810  0.655490  0.186020  Uiso  0.001267
    Ce1  Ce4+  1.0000  0.032580  0.822290  0.186020  Uiso  0.001267
    Ce1  Ce4+  1.0000  0.301030  0.856170  0.186020  Uiso  0.001267
    Ce1  Ce4+  1.0000  0.569480  0.890060  0.186020  Uiso  0.001267
    Ce1  Ce4+  1.0000  0.837930  0.923940  0.186020  Uiso  0.001267
    Ce1  Ce4+  1.0000  0.134230  0.016940  0.219850  Uiso  0.001267
    Ce1  Ce4+  1.0000  0.402680  0.050820  0.219850  Uiso  0.001267
    Ce1  Ce4+  1.0000  0.671130  0.084710  0.219850  Uiso  0.001267
    Ce1  Ce4+  1.0000  0.939580  0.118590  0.219850  Uiso  0.001267
    Ce1  Ce4+  1.0000  0.100340  0.285390  0.219850  Uiso  0.001267
    Ce1  Ce4+  1.0000  0.368790  0.319270  0.219850  Uiso  0.001267
    Ce1  Ce4+  1.0000  0.637240  0.353160  0.219850  Uiso  0.001267
    Ce1  Ce4+  1.0000  0.905690  0.387040  0.219850  Uiso  0.001267
    Ce1  Ce4+  1.0000  0.066460  0.553840  0.219850  Uiso  0.001267
    Ce1  Ce4+  1.0000  0.334910  0.587720  0.219850  Uiso  0.001267
    Ce1  Ce4+  1.0000  0.603360  0.621610  0.219850  Uiso  0.001267
    Ce1  Ce4+  1.0000  0.871810  0.655490  0.219850  Uiso  0.001267
    Ce1  Ce4+  1.0000  0.032580  0.822290  0.219850  Uiso  0.001267
    Ce1  Ce4+  1.0000  0.301030  0.856170  0.219850  Uiso  0.001267
    Ce1  Ce4+  1.0000  0.569480  0.890060  0.219850  Uiso  0.001267
    Ce1  Ce4+  1.0000  0.837930  0.923940  0.219850  Uiso  0.001267
    Ce1  Ce4+  1.0000  0.134230  0.016940  0.253670  Uiso  0.001267
    Ce1  Ce4+  1.0000  0.402680  0.050820  0.253670  Uiso  0.001267
    Ce1  Ce4+  1.0000  0.671130  0.084710  0.253670  Uiso  0.001267
    Ce1  Ce4+  1.0000  0.939580  0.118590  0.253670  Uiso  0.001267
    Ce1  Ce4+  1.0000  0.100340  0.285390  0.253670  Uiso  0.001267
    Ce1  Ce4+  1.0000  0.368790  0.319270  0.253670  Uiso  0.001267
    Ce1  Ce4+  1.0000  0.637240  0.353160  0.253670  Uiso  0.001267
    Ce1  Ce4+  1.0000  0.905690  0.387040  0.253670  Uiso  0.001267
    Ce1  Ce4+  1.0000  0.066460  0.553840  0.253670  Uiso  0.001267
    Ce1  Ce4+  1.0000  0.334910  0.587720  0.253670  Uiso  0.001267
    Ce1  Ce4+  1.0000  0.603360  0.621610  0.253670  Uiso  0.001267
    Ce1  Ce4+  1.0000  0.871810  0.655490  0.253670  Uiso  0.001267
    Ce1  Ce4+  1.0000  0.032580  0.822290  0.253670  Uiso  0.001267
    Ce1  Ce4+  1.0000  0.301030  0.856170  0.253670  Uiso  0.001267
    Ce1  Ce4+  1.0000  0.569480  0.890060  0.253670  Uiso  0.001267
    Ce1  Ce4+  1.0000  0.837930  0.923940  0.253670  Uiso  0.001267
    Ce1  Ce4+  1.0000  0.134230  0.016940  0.287490  Uiso  0.001267
    Ce1  Ce4+  1.0000  0.402680  0.050820  0.287490  Uiso  0.001267
    Ce1  Ce4+  1.0000  0.671130  0.084710  0.287490  Uiso  0.001267
    Ce1  Ce4+  1.0000  0.939580  0.118590  0.287490  Uiso  0.001267
    Ce1  Ce4+  1.0000  0.100340  0.285390  0.287490  Uiso  0.001267
    Ce1  Ce4+  1.0000  0.368790  0.319270  0.287490  Uiso  0.001267
    Ce1  Ce4+  1.0000  0.637240  0.353160  0.287490  Uiso  0.001267
    Ce1  Ce4+  1.0000  0.905690  0.387040  0.287490  Uiso  0.001267
    Ce1  Ce4+  1.0000  0.066460  0.553840  0.287490  Uiso  0.001267
    Ce1  Ce4+  1.0000  0.334910  0.587720  0.287490  Uiso  0.001267
    Ce1  Ce4+  1.0000  0.603360  0.621610  0.287490  Uiso  0.001267
    Ce1  Ce4+  1.0000  0.871810  0.655490  0.287490  Uiso  0.001267
    Ce1  Ce4+  1.0000  0.032580  0.822290  0.287490  Uiso  0.001267
    Ce1  Ce4+  1.0000  0.301030  0.856170  0.287490  Uiso  0.001267
    Ce1  Ce4+  1.0000  0.569480  0.890060  0.287490  Uiso  0.001267
    Ce1  Ce4+  1.0000  0.837930  0.923940  0.287490  Uiso  0.001267
    Ce1  Ce4+  1.0000  0.134230  0.016940  0.321310  Uiso  0.001267
    Ce1  Ce4+  1.0000  0.402680  0.050820  0.321310  Uiso  0.001267
    Ce1  Ce4+  1.0000  0.671130  0.084710  0.321310  Uiso  0.001267
    Ce1  Ce4+  1.0000  0.939580  0.118590  0.321310  Uiso  0.001267
    Ce1  Ce4+  1.0000  0.100340  0.285390  0.321310  Uiso  0.001267
    Ce1  Ce4+  1.0000  0.368790  0.319270  0.321310  Uiso  0.001267
    Ce1  Ce4+  1.0000  0.637240  0.353160  0.321310  Uiso  0.001267
    Ce1  Ce4+  1.0000  0.905690  0.387040  0.321310  Uiso  0.001267
    Ce1  Ce4+  1.0000  0.066460  0.553840  0.321310  Uiso  0.001267
    Ce1  Ce4+  1.0000  0.334910  0.587720  0.321310  Uiso  0.001267
    Ce1  Ce4+  1.0000  0.603360  0.621610  0.321310  Uiso  0.001267
    Ce1  Ce4+  1.0000  0.871810  0.655490  0.321310  Uiso  0.001267
    Ce1  Ce4+  1.0000  0.032580  0.822290  0.321310  Uiso  0.001267
    Ce1  Ce4+  1.0000  0.301030  0.856170  0.321310  Uiso  0.001267
    Ce1  Ce4+  1.0000  0.569480  0.890060  0.321310  Uiso  0.001267
    Ce1  Ce4+  1.0000  0.837930  0.923940  0.321310  Uiso  0.001267
    Ce1  Ce4+  1.0000  0.134230  0.016940  0.355140  Uiso  0.001267
    Ce1  Ce4+  1.0000  0.402680  0.050820  0.355140  Uiso  0.001267
    Ce1  Ce4+  1.0000  0.671130  0.084710  0.355140  Uiso  0.001267
    Ce1  Ce4+  1.0000  0.939580  0.118590  0.355140  Uiso  0.001267
    Ce1  Ce4+  1.0000  0.100340  0.285390  0.355140  Uiso  0.001267
    Ce1  Ce4+  1.0000  0.368790  0.319270  0.355140  Uiso  0.001267
    Ce1  Ce4+  1.0000  0.637240  0.353160  0.355140  Uiso  0.001267
    Ce1  Ce4+  1.0000  0.905690  0.387040  0.355140  Uiso  0.001267
    Ce1  Ce4+  1.0000  0.066460  0.553840  0.355140  Uiso  0.001267
    Ce1  Ce4+  1.0000  0.334910  0.587720  0.355140  Uiso  0.001267
    Ce1  Ce4+  1.0000  0.603360  0.621610  0.355140  Uiso  0.001267
    Ce1  Ce4+  1.0000  0.871810  0.655490  0.355140  Uiso  0.001267
    Ce1  Ce4+  1.0000  0.032580  0.822290  0.355140  Uiso  0.001267
    Ce1  Ce4+  1.0000  0.301030  0.856170  0.355140  Uiso  0.001267
    Ce1  Ce4+  1.0000  0.569480  0.890060  0.355140  Uiso  0.001267
    Ce1  Ce4+  1.0000  0.837930  0.923940  0.355140  Uiso  0.001267
    Ce1  Ce4+  1.0000  0.134230  0.016940  0.388960  Uiso  0.001267
    Ce1  Ce4+  1.0000  0.402680  0.050820  0.388960  Uiso  0.001267
    Ce1  Ce4+  1.0000  0.671130  0.084710  0.388960  Uiso  0.001267
    Ce1  Ce4+  1.0000  0.939580  0.118590  0.388960  Uiso  0.001267
    Ce1  Ce4+  1.0000  0.100340  0.285390  0.388960  Uiso  0.001267
    Ce1  Ce4+  1.0000  0.368790  0.319270  0.388960  Uiso  0.001267
    Ce1  Ce4+  1.0000  0.637240  0.353160  0.388960  Uiso  0.001267
    Ce1  Ce4+  1.0000  0.905690  0.387040  0.388960  Uiso  0.001267
    Ce1  Ce4+  1.0000  0.066460  0.553840  0.388960  Uiso  0.001267
    Ce1  Ce4+  1.0000  0.334910  0.587720  0.388960  Uiso  0.001267
    Ce1  Ce4+  1.0000  0.603360  0.621610  0.388960  Uiso  0.001267
    Ce1  Ce4+  1.0000  0.871810  0.655490  0.388960  Uiso  0.001267
    Ce1  Ce4+  1.0000  0.032580  0.822290  0.388960  Uiso  0.001267
    Ce1  Ce4+  1.0000  0.301030  0.856170  0.388960  Uiso  0.001267
    Ce1  Ce4+  1.0000  0.569480  0.890060  0.388960  Uiso  0.001267
    Ce1  Ce4+  1.0000  0.837930  0.923940  0.388960  Uiso  0.001267
    Ce1  Ce4+  1.0000  0.134230  0.016940  0.422780  Uiso  0.001267
    Ce1  Ce4+  1.0000  0.402680  0.050820  0.422780  Uiso  0.001267
    Ce1  Ce4+  1.0000  0.671130  0.084710  0.422780  Uiso  0.001267
    Ce1  Ce4+  1.0000  0.939580  0.118590  0.422780  Uiso  0.001267
    Ce1  Ce4+  1.0000  0.100340  0.285390  0.422780  Uiso  0.001267
    Ce1  Ce4+  1.0000  0.368790  0.319270  0.422780  Uiso  0.001267
    Ce1  Ce4+  1.0000  0.637240  0.353160  0.422780  Uiso  0.001267
    Ce1  Ce4+  1.0000  0.905690  0.387040  0.422780  Uiso  0.001267
    Ce1  Ce4+  1.0000  0.066460  0.553840  0.422780  Uiso  0.001267
    Ce1  Ce4+  1.0000  0.334910  0.587720  0.422780  Uiso  0.001267
    Ce1  Ce4+  1.0000  0.603360  0.621610  0.422780  Uiso  0.001267
    Ce1  Ce4+  1.0000  0.871810  0.655490  0.422780  Uiso  0.001267
    Ce1  Ce4+  1.0000  0.032580  0.822290  0.422780  Uiso  0.001267
    Ce1  Ce4+  1.0000  0.301030  0.856170  0.422780  Uiso  0.001267
    Ce1  Ce4+  1.0000  0.569480  0.890060  0.422780  Uiso  0.001267
    Ce1  Ce4+  1.0000  0.837930  0.923940  0.422780  Uiso  0.001267
    Ce1  Ce4+  1.0000  0.134230  0.016940  0.456600  Uiso  0.001267
    Ce1  Ce4+  1.0000  0.402680  0.050820  0.456600  Uiso  0.001267
    Ce1  Ce4+  1.0000  0.671130  0.084710  0.456600  Uiso  0.001267
    Ce1  Ce4+  1.0000  0.939580  0.118590  0.456600  Uiso  0.001267
    Ce1  Ce4+  1.0000  0.100340  0.285390  0.456600  Uiso  0.001267
    Ce1  Ce4+  1.0000  0.368790  0.319270  0.456600  Uiso  0.001267
    Ce1  Ce4+  1.0000  0.637240  0.353160  0.456600  Uiso  0.001267
    Ce1  Ce4+  1.0000  0.905690  0.387040  0.456600  Uiso  0.001267
    Ce1  Ce4+  1.0000  0.066460  0.553840  0.456600  Uiso  0.001267
    Ce1  Ce4+  1.0000  0.334910  0.587720  0.456600  Uiso  0.001267
    Ce1  Ce4+  1.0000  0.603360  0.621610  0.456600  Uiso  0.001267
    Ce1  Ce4+  1.0000  0.871810  0.655490  0.456600  Uiso  0.001267
    Ce1  Ce4+  1.0000  0.032580  0.822290  0.456600  Uiso  0.001267
    Ce1  Ce4+  1.0000  0.301030  0.856170  0.456600  Uiso  0.001267
    Ce1  Ce4+  1.0000  0.569480  0.890060  0.456600  Uiso  0.001267
    Ce1  Ce4+  1.0000  0.837930  0.923940  0.456600  Uiso  0.001267
    Ce1  Ce4+  1.0000  0.134230  0.016940  0.490430  Uiso  0.001267
    Ce1  Ce4+  1.0000  0.402680  0.050820  0.490430  Uiso  0.001267
    Ce1  Ce4+  1.0000  0.671130  0.084710  0.490430  Uiso  0.001267
    Ce1  Ce4+  1.0000  0.939580  0.118590  0.490430  Uiso  0.001267
    Ce1  Ce4+  1.0000  0.100340  0.285390  0.490430  Uiso  0.001267
    Ce1  Ce4+  1.0000  0.368790  0.319270  0.490430  Uiso  0.001267
    Ce1  Ce4+  1.0000  0.637240  0.353160  0.490430  Uiso  0.001267
    Ce1  Ce4+  1.0000  0.905690  0.387040  0.490430  Uiso  0.001267
    Ce1  Ce4+  1.0000  0.066460  0.553840  0.490430  Uiso  0.001267
    Ce1  Ce4+  1.0000  0.334910  0.587720  0.490430  Uiso  0.001267
    Ce1  Ce4+  1.0000  0.603360  0.621610  0.490430  Uiso  0.001267
    Ce1  Ce4+  1.0000  0.871810  0.655490  0.490430  Uiso  0.001267
    Ce1  Ce4+  1.0000  0.032580  0.822290  0.490430  Uiso  0.001267
    Ce1  Ce4+  1.0000  0.301030  0.856170  0.490430  Uiso  0.001267
    Ce1  Ce4+  1.0000  0.569480  0.890060  0.490430  Uiso  0.001267
    Ce1  Ce4+  1.0000  0.837930  0.923940  0.490430  Uiso  0.001267
    Ce1  Ce4+  1.0000  0.134230  0.016940  0.524250  Uiso  0.001267
    Ce1  Ce4+  1.0000  0.402680  0.050820  0.524250  Uiso  0.001267
    Ce1  Ce4+  1.0000  0.671130  0.084710  0.524250  Uiso  0.001267
    Ce1  Ce4+  1.0000  0.939580  0.118590  0.524250  Uiso  0.001267
    Ce1  Ce4+  1.0000  0.100340  0.285390  0.524250  Uiso  0.001267
    Ce1  Ce4+  1.0000  0.368790  0.319270  0.524250  Uiso  0.001267
    Ce1  Ce4+  1.0000  0.637240  0.353160  0.524250  Uiso  0.001267
    Ce1  Ce4+  1.0000  0.905690  0.387040  0.524250  Uiso  0.001267
    Ce1  Ce4+  1.0000  0.066460  0.553840  0.524250  Uiso  0.001267
    Ce1  Ce4+  1.0000  0.334910  0.587720  0.524250  Uiso  0.001267
    Ce1  Ce4+  1.0000  0.603360  0.621610  0.524250  Uiso  0.001267
    Ce1  Ce4+  1.0000  0.871810  0.655490  0.524250  Uiso  0.001267
    Ce1  Ce4+  1.0000  0.032580  0.822290  0.524250  Uiso  0.001267
    Ce1  Ce4+  1.0000  0.301030  0.856170  0.524250  Uiso  0.001267
    Ce1  Ce4+  1.0000  0.569480  0.890060  0.524250  Uiso  0.001267
    Ce1  Ce4+  1.0000  0.837930  0.923940  0.524250  Uiso  0.001267
    Ce1  Ce4+  1.0000  0.134230  0.016940  0.558070  Uiso  0.001267
    Ce1  Ce4+  1.0000  0.402680  0.050820  0.558070  Uiso  0.001267
    Ce1  Ce4+  1.0000  0.671130  0.084710  0.558070  Uiso  0.001267
    Ce1  Ce4+  1.0000  0.939580  0.118590  0.558070  Uiso  0.001267
    Ce1  Ce4+  1.0000  0.100340  0.285390  0.558070  Uiso  0.001267
    Ce1  Ce4+  1.0000  0.368790  0.319270  0.558070  Uiso  0.001267
    Ce1  Ce4+  1.0000  0.637240  0.353160  0.558070  Uiso  0.001267
    Ce1  Ce4+  1.0000  0.905690  0.387040  0.558070  Uiso  0.001267
    Ce1  Ce4+  1.0000  0.066460  0.553840  0.558070  Uiso  0.001267
    Ce1  Ce4+  1.0000  0.334910  0.587720  0.558070  Uiso  0.001267
    Ce1  Ce4+  1.0000  0.603360  0.621610  0.558070  Uiso  0.001267
    Ce1  Ce4+  1.0000  0.871810  0.655490  0.558070  Uiso  0.001267
    Ce1  Ce4+  1.0000  0.032580  0.822290  0.558070  Uiso  0.001267
    Ce1  Ce4+  1.0000  0.301030  0.856170  0.558070  Uiso  0.001267
    Ce1  Ce4+  1.0000  0.569480  0.890060  0.558070  Uiso  0.001267
    Ce1  Ce4+  1.0000  0.837930  0.923940  0.558070  Uiso  0.001267
    Ce1  Ce4+  1.0000  0.134230  0.016940  0.591890  Uiso  0.001267
    Ce1  Ce4+  1.0000  0.402680  0.050820  0.591890  Uiso  0.001267
    Ce1  Ce4+  1.0000  0.671130  0.084710  0.591890  Uiso  0.001267
    Ce1  Ce4+  1.0000  0.939580  0.118590  0.591890  Uiso  0.001267
    Ce1  Ce4+  1.0000  0.100340  0.285390  0.591890  Uiso  0.001267
    Ce1  Ce4+  1.0000  0.368790  0.319270  0.591890  Uiso  0.001267
    Ce1  Ce4+  1.0000  0.637240  0.353160  0.591890  Uiso  0.001267
    Ce1  Ce4+  1.0000  0.905690  0.387040  0.591890  Uiso  0.001267
    Ce1  Ce4+  1.0000  0.066460  0.553840  0.591890  Uiso  0.001267
    Ce1  Ce4+  1.0000  0.334910  0.587720  0.591890  Uiso  0.001267
    Ce1  Ce4+  1.0000  0.603360  0.621610  0.591890  Uiso  0.001267
    Ce1  Ce4+  1.0000  0.871810  0.655490  0.591890  Uiso  0.001267
    Ce1  Ce4+  1.0000  0.032580  0.822290  0.591890  Uiso  0.001267
    Ce1  Ce4+  1.0000  0.301030  0.856170  0.591890  Uiso  0.001267
    Ce1  Ce4+  1.0000  0.569480  0.890060  0.591890  Uiso  0.001267
    Ce1  Ce4+  1.0000  0.837930  0.923940  0.591890  Uiso  0.001267
    Ce1  Ce4+  1.0000  0.134230  0.016940  0.625720  Uiso  0.001267
    Ce1  Ce4+  1.0000  0.402680  0.050820  0.625720  Uiso  0.001267
    Ce1  Ce4+  1.0000  0.671130  0.084710  0.625720  Uiso  0.001267
    Ce1  Ce4+  1.0000  0.939580  0.118590  0.625720  Uiso  0.001267
    Ce1  Ce4+  1.0000  0.100340  0.285390  0.625720  Uiso  0.001267
    Ce1  Ce4+  1.0000  0.368790  0.319270  0.625720  Uiso  0.001267
    Ce1  Ce4+  1.0000  0.637240  0.353160  0.625720  Uiso  0.001267
    Ce1  Ce4+  1.0000  0.905690  0.387040  0.625720  Uiso  0.001267
    Ce1  Ce4+  1.0000  0.066460  0.553840  0.625720  Uiso  0.001267
    Ce1  Ce4+  1.0000  0.334910  0.587720  0.625720  Uiso  0.001267
    Ce1  Ce4+  1.0000  0.603360  0.621610  0.625720  Uiso  0.001267
    Ce1  Ce4+  1.0000  0.871810  0.655490  0.625720  Uiso  0.001267
    Ce1  Ce4+  1.0000  0.032580  0.822290  0.625720  Uiso  0.001267
    Ce1  Ce4+  1.0000  0.301030  0.856170  0.625720  Uiso  0.001267
    Ce1  Ce4+  1.0000  0.569480  0.890060  0.625720  Uiso  0.001267
    Ce1  Ce4+  1.0000  0.837930  0.923940  0.625720  Uiso  0.001267
    Ce1  Ce4+  1.0000  0.134230  0.016940  0.659540  Uiso  0.001267
    Ce1  Ce4+  1.0000  0.402680  0.050820  0.659540  Uiso  0.001267
    Ce1  Ce4+  1.0000  0.671130  0.084710  0.659540  Uiso  0.001267
    Ce1  Ce4+  1.0000  0.939580  0.118590  0.659540  Uiso  0.001267
    Ce1  Ce4+  1.0000  0.100340  0.285390  0.659540  Uiso  0.001267
    Ce1  Ce4+  1.0000  0.368790  0.319270  0.659540  Uiso  0.001267
    Ce1  Ce4+  1.0000  0.637240  0.353160  0.659540  Uiso  0.001267
    Ce1  Ce4+  1.0000  0.905690  0.387040  0.659540  Uiso  0.001267
    Ce1  Ce4+  1.0000  0.066460  0.553840  0.659540  Uiso  0.001267
    Ce1  Ce4+  1.0000  0.334910  0.587720  0.659540  Uiso  0.001267
    Ce1  Ce4+  1.0000  0.603360  0.621610  0.659540  Uiso  0.001267
    Ce1  Ce4+  1.0000  0.871810  0.655490  0.659540  Uiso  0.001267
    Ce1  Ce4+  1.0000  0.032580  0.822290  0.659540  Uiso  0.001267
    Ce1  Ce4+  1.0000  0.301030  0.856170  0.659540  Uiso  0.001267
    Ce1  Ce4+  1.0000  0.569480  0.890060  0.659540  Uiso  0.001267
    Ce1  Ce4+  1.0000  0.837930  0.923940  0.659540  Uiso  0.001267
    Ce1  Ce4+  1.0000  0.134230  0.016940  0.693360  Uiso  0.001267
    Ce1  Ce4+  1.0000  0.402680  0.050820  0.693360  Uiso  0.001267
    Ce1  Ce4+  1.0000  0.671130  0.084710  0.693360  Uiso  0.001267
    Ce1  Ce4+  1.0000  0.939580  0.118590  0.693360  Uiso  0.001267
    Ce1  Ce4+  1.0000  0.100340  0.285390  0.693360  Uiso  0.001267
    Ce1  Ce4+  1.0000  0.368790  0.319270  0.693360  Uiso  0.001267
    Ce1  Ce4+  1.0000  0.637240  0.353160  0.693360  Uiso  0.001267
    Ce1  Ce4+  1.0000  0.905690  0.387040  0.693360  Uiso  0.001267
    Ce1  Ce4+  1.0000  0.066460  0.553840  0.693360  Uiso  0.001267
    Ce1  Ce4+  1.0000  0.334910  0.587720  0.693360  Uiso  0.001267
    Ce1  Ce4+  1.0000  0.603360  0.621610  0.693360  Uiso  0.001267
    Ce1  Ce4+  1.0000  0.871810  0.655490  0.693360  Uiso  0.001267
    Ce1  Ce4+  1.0000  0.032580  0.822290  0.693360  Uiso  0.001267
    Ce1  Ce4+  1.0000  0.301030  0.856170  0.693360  Uiso  0.001267
    Ce1  Ce4+  1.0000  0.569480  0.890060  0.693360  Uiso  0.001267
    Ce1  Ce4+  1.0000  0.837930  0.923940  0.693360  Uiso  0.001267
    Ce1  Ce4+  1.0000  0.134230  0.016940  0.727180  Uiso  0.001267
    Ce1  Ce4+  1.0000  0.402680  0.050820  0.727180  Uiso  0.001267
    Ce1  Ce4+  1.0000  0.671130  0.084710  0.727180  Uiso  0.001267
    Ce1  Ce4+  1.0000  0.939580  0.118590  0.727180  Uiso  0.001267
    Ce1  Ce4+  1.0000  0.100340  0.285390  0.727180  Uiso  0.001267
    Ce1  Ce4+  1.0000  0.368790  0.319270  0.727180  Uiso  0.001267
    Ce1  Ce4+  1.0000  0.637240  0.353160  0.727180  Uiso  0.001267
    Ce1  Ce4+  1.0000  0.905690  0.387040  0.727180  Uiso  0.001267
    Ce1  Ce4+  1.0000  0.066460  0.553840  0.727180  Uiso  0.001267
    Ce1  Ce4+  1.0000  0.334910  0.587720  0.727180  Uiso  0.001267
    Ce1  Ce4+  1.0000  0.603360  0.621610  0.727180  Uiso  0.001267
    Ce1  Ce4+  1.0000  0.871810  0.655490  0.727180  Uiso  0.001267
    Ce1  Ce4+  1.0000  0.032580  0.822290  0.727180  Uiso  0.001267
    Ce1  Ce4+  1.0000  0.301030  0.856170  0.727180  Uiso  0.001267
    Ce1  Ce4+  1.0000  0.569480  0.890060  0.727180  Uiso  0.001267
    Ce1  Ce4+  1.0000  0.837930  0.923940  0.727180  Uiso  0.001267
    Ce1  Ce4+  1.0000  0.134230  0.016940  0.761010  Uiso  0.001267
    Ce1  Ce4+  1.0000  0.402680  0.050820  0.761010  Uiso  0.001267
    Ce1  Ce4+  1.0000  0.671130  0.084710  0.761010  Uiso  0.001267
    Ce1  Ce4+  1.0000  0.939580  0.118590  0.761010  Uiso  0.001267
    Ce1  Ce4+  1.0000  0.100340  0.285390  0.761010  Uiso  0.001267
    Ce1  Ce4+  1.0000  0.368790  0.319270  0.761010  Uiso  0.001267
    Ce1  Ce4+  1.0000  0.637240  0.353160  0.761010  Uiso  0.001267
    Ce1  Ce4+  1.0000  0.905690  0.387040  0.761010  Uiso  0.001267
    Ce1  Ce4+  1.0000  0.066460  0.553840  0.761010  Uiso  0.001267
    Ce1  Ce4+  1.0000  0.334910  0.587720  0.761010  Uiso  0.001267
    Ce1  Ce4+  1.0000  0.603360  0.621610  0.761010  Uiso  0.001267
    Ce1  Ce4+  1.0000  0.871810  0.655490  0.761010  Uiso  0.001267
    Ce1  Ce4+  1.0000  0.032580  0.822290  0.761010  Uiso  0.001267
    Ce1  Ce4+  1.0000  0.301030  0.856170  0.761010  Uiso  0.001267
    Ce1  Ce4+  1.0000  0.569480  0.890060  0.761010  Uiso  0.001267
    Ce1  Ce4+  1.0000  0.837930  0.923940  0.761010  Uiso  0.001267
    Ce1  Ce4+  1.0000  0.134230  0.016940  0.794830  Uiso  0.001267
    Ce1  Ce4+  1.0000  0.402680  0.050820  0.794830  Uiso  0.001267
    Ce1  Ce4+  1.0000  0.671130  0.084710  0.794830  Uiso  0.001267
    Ce1  Ce4+  1.0000  0.939580  0.118590  0.794830  Uiso  0.001267
    Ce1  Ce4+  1.0000  0.100340  0.285390  0.794830  Uiso  0.001267
    Ce1  Ce4+  1.0000  0.368790  0.319270  0.794830  Uiso  0.001267
    Ce1  Ce4+  1.0000  0.637240  0.353160  0.794830  Uiso  0.001267
    Ce1  Ce4+  1.0000  0.905690  0.387040  0.794830  Uiso  0.001267
    Ce1  Ce4+  1.0000  0.066460  0.553840  0.794830  Uiso  0.001267
    Ce1  Ce4+  1.0000  0.334910  0.587720  0.794830  Uiso  0.001267
    Ce1  Ce4+  1.0000  0.603360  0.621610  0.794830  Uiso  0.001267
    Ce1  Ce4+  1.0000  0.871810  0.655490  0.794830  Uiso  0.001267
    Ce1  Ce4+  1.0000  0.032580  0.822290  0.794830  Uiso  0.001267
    Ce1  Ce4+  1.0000  0.301030  0.856170  0.794830  Uiso  0.001267
    Ce1  Ce4+  1.0000  0.569480  0.890060  0.794830  Uiso  0.001267
    Ce1  Ce4+  1.0000  0.837930  0.923940  0.794830  Uiso  0.001267
    Ce1  Ce4+  1.0000  0.134230  0.016940  0.828650  Uiso  0.001267
    Ce1  Ce4+  1.0000  0.402680  0.050820  0.828650  Uiso  0.001267
    Ce1  Ce4+  1.0000  0.671130  0.084710  0.828650  Uiso  0.001267
    Ce1  Ce4+  1.0000  0.939580  0.118590  0.828650  Uiso  0.001267
    Ce1  Ce4+  1.0000  0.100340  0.285390  0.828650  Uiso  0.001267
    Ce1  Ce4+  1.0000  0.368790  0.319270  0.828650  Uiso  0.001267
    Ce1  Ce4+  1.0000  0.637240  0.353160  0.828650  Uiso  0.001267
    Ce1  Ce4+  1.0000  0.905690  0.387040  0.828650  Uiso  0.001267
    Ce1  Ce4+  1.0000  0.066460  0.553840  0.828650  Uiso  0.001267
    Ce1  Ce4+  1.0000  0.334910  0.587720  0.828650  Uiso  0.001267
    Ce1  Ce4+  1.0000  0.603360  0.621610  0.828650  Uiso  0.001267
    Ce1  Ce4+  1.0000  0.871810  0.655490  0.828650  Uiso  0.001267
    Ce1  Ce4+  1.0000  0.032580  0.822290  0.828650  Uiso  0.001267
    Ce1  Ce4+  1.0000  0.301030  0.856170  0.828650  Uiso  0.001267
    Ce1  Ce4+  1.0000  0.569480  0.890060  0.828650  Uiso  0.001267
    Ce1  Ce4+  1.0000  0.837930  0.923940  0.828650  Uiso  0.001267
    Ce1  Ce4+  1.0000  0.134230  0.016940  0.862470  Uiso  0.001267
    Ce1  Ce4+  1.0000  0.402680  0.050820  0.862470  Uiso  0.001267
    Ce1  Ce4+  1.0000  0.671130  0.084710  0.862470  Uiso  0.001267
    Ce1  Ce4+  1.0000  0.939580  0.118590  0.862470  Uiso  0.001267
    Ce1  Ce4+  1.0000  0.100340  0.285390  0.862470  Uiso  0.001267
    Ce1  Ce4+  1.0000  0.368790  0.319270  0.862470  Uiso  0.001267
    Ce1  Ce4+  1.0000  0.637240  0.353160  0.862470  Uiso  0.001267
    Ce1  Ce4+  1.0000  0.905690  0.387040  0.862470  Uiso  0.001267
    Ce1  Ce4+  1.0000  0.066460  0.553840  0.862470  Uiso  0.001267
    Ce1  Ce4+  1.0000  0.334910  0.587720  0.862470  Uiso  0.001267
    Ce1  Ce4+  1.0000  0.603360  0.621610  0.862470  Uiso  0.001267
    Ce1  Ce4+  1.0000  0.871810  0.655490  0.862470  Uiso  0.001267
    Ce1  Ce4+  1.0000  0.032580  0.822290  0.862470  Uiso  0.001267
    Ce1  Ce4+  1.0000  0.301030  0.856170  0.862470  Uiso  0.001267
    Ce1  Ce4+  1.0000  0.569480  0.890060  0.862470  Uiso  0.001267
    Ce1  Ce4+  1.0000  0.837930  0.923940  0.862470  Uiso  0.001267
    Ce1  Ce4+  1.0000  0.134230  0.016940  0.896300  Uiso  0.001267
    Ce1  Ce4+  1.0000  0.402680  0.050820  0.896300  Uiso  0.001267
    Ce1  Ce4+  1.0000  0.671130  0.084710  0.896300  Uiso  0.001267
    Ce1  Ce4+  1.0000  0.939580  0.118590  0.896300  Uiso  0.001267
    Ce1  Ce4+  1.0000  0.100340  0.285390  0.896300  Uiso  0.001267
    Ce1  Ce4+  1.0000  0.368790  0.319270  0.896300  Uiso  0.001267
    Ce1  Ce4+  1.0000  0.637240  0.353160  0.896300  Uiso  0.001267
    Ce1  Ce4+  1.0000  0.905690  0.387040  0.896300  Uiso  0.001267
    Ce1  Ce4+  1.0000  0.066460  0.553840  0.896300  Uiso  0.001267
    Ce1  Ce4+  1.0000  0.334910  0.587720  0.896300  Uiso  0.001267
    Ce1  Ce4+  1.0000  0.603360  0.621610  0.896300  Uiso  0.001267
    Ce1  Ce4+  1.0000  0.871810  0.655490  0.896300  Uiso  0.001267
    Ce1  Ce4+  1.0000  0.032580  0.822290  0.896300  Uiso  0.001267
    Ce1  Ce4+  1.0000  0.301030  0.856170  0.896300  Uiso  0.001267
    Ce1  Ce4+  1.0000  0.569480  0.890060  0.896300  Uiso  0.001267
    Ce1  Ce4+  1.0000  0.837930  0.923940  0.896300  Uiso  0.001267
    Ce1  Ce4+  1.0000  0.134230  0.016940  0.930120  Uiso  0.001267
    Ce1  Ce4+  1.0000  0.402680  0.050820  0.930120  Uiso  0.001267
    Ce1  Ce4+  1.0000  0.671130  0.084710  0.930120  Uiso  0.001267
    Ce1  Ce4+  1.0000  0.939580  0.118590  0.930120  Uiso  0.001267
    Ce1  Ce4+  1.0000  0.100340  0.285390  0.930120  Uiso  0.001267
    Ce1  Ce4+  1.0000  0.368790  0.319270  0.930120  Uiso  0.001267
    Ce1  Ce4+  1.0000  0.637240  0.353160  0.930120  Uiso  0.001267
    Ce1  Ce4+  1.0000  0.905690  0.387040  0.930120  Uiso  0.001267
    Ce1  Ce4+  1.0000  0.066460  0.553840  0.930120  Uiso  0.001267
    Ce1  Ce4+  1.0000  0.334910  0.587720  0.930120  Uiso  0.001267
    Ce1  Ce4+  1.0000  0.603360  0.621610  0.930120  Uiso  0.001267
    Ce1  Ce4+  1.0000  0.871810  0.655490  0.930120  Uiso  0.001267
    Ce1  Ce4+  1.0000  0.032580  0.822290  0.930120  Uiso  0.001267
    Ce1  Ce4+  1.0000  0.301030  0.856170  0.930120  Uiso  0.001267
    Ce1  Ce4+  1.0000  0.569480  0.890060  0.930120  Uiso  0.001267
    Ce1  Ce4+  1.0000  0.837930  0.923940  0.930120  Uiso  0.001267
    Ce1  Ce4+  1.0000  0.134230  0.016940  0.963940  Uiso  0.001267
    Ce1  Ce4+  1.0000  0.402680  0.050820  0.963940  Uiso  0.001267
    Ce1  Ce4+  1.0000  0.671130  0.084710  0.963940  Uiso  0.001267
    Ce1  Ce4+  1.0000  0.939580  0.118590  0.963940  Uiso  0.001267
    Ce1  Ce4+  1.0000  0.100340  0.285390  0.963940  Uiso  0.001267
    Ce1  Ce4+  1.0000  0.368790  0.319270  0.963940  Uiso  0.001267
    Ce1  Ce4+  1.0000  0.637240  0.353160  0.963940  Uiso  0.001267
    Ce1  Ce4+  1.0000  0.905690  0.387040  0.963940  Uiso  0.001267
    Ce1  Ce4+  1.0000  0.066460  0.553840  0.963940  Uiso  0.001267
    Ce1  Ce4+  1.0000  0.334910  0.587720  0.963940  Uiso  0.001267
    Ce1  Ce4+  1.0000  0.603360  0.621610  0.963940  Uiso  0.001267
    Ce1  Ce4+  1.0000  0.871810  0.655490  0.963940  Uiso  0.001267
    Ce1  Ce4+  1.0000  0.032580  0.822290  0.963940  Uiso  0.001267
    Ce1  Ce4+  1.0000  0.301030  0.856170  0.963940  Uiso  0.001267
    Ce1  Ce4+  1.0000  0.569480  0.890060  0.963940  Uiso  0.001267
    Ce1  Ce4+  1.0000  0.837930  0.923940  0.963940  Uiso  0.001267
    Ce1  Ce4+  1.0000  0.134230  0.016940  0.997760  Uiso  0.001267
    Ce1  Ce4+  1.0000  0.402680  0.050820  0.997760  Uiso  0.001267
    Ce1  Ce4+  1.0000  0.671130  0.084710  0.997760  Uiso  0.001267
    Ce1  Ce4+  1.0000  0.939580  0.118590  0.997760  Uiso  0.001267
    Ce1  Ce4+  1.0000  0.100340  0.285390  0.997760  Uiso  0.001267
    Ce1  Ce4+  1.0000  0.368790  0.319270  0.997760  Uiso  0.001267
    Ce1  Ce4+  1.0000  0.637240  0.353160  0.997760  Uiso  0.001267
    Ce1  Ce4+  1.0000  0.905690  0.387040  0.997760  Uiso  0.001267
    Ce1  Ce4+  1.0000  0.066460  0.553840  0.997760  Uiso  0.001267
    Ce1  Ce4+  1.0000  0.334910  0.587720  0.997760  Uiso  0.001267
    Ce1  Ce4+  1.0000  0.603360  0.621610  0.997760  Uiso  0.001267
    Ce1  Ce4+  1.0000  0.871810  0.655490  0.997760  Uiso  0.001267
    Ce1  Ce4+  1.0000  0.032580  0.822290  0.997760  Uiso  0.001267
    Ce1  Ce4+  1.0000  0.301030  0.856170  0.997760  Uiso  0.001267
    Ce1  Ce4+  1.0000  0.569480  0.890060  0.997760  Uiso  0.001267
    Ce1  Ce4+  1.0000  0.837930  0.923940  0.997760  Uiso  0.001267

# End of data_CELSLC
