#\#CIF_2.0
data_CELSLC

# Crystal data
_pd_phase_name                         'Super Cell'
_cell_length_a                         20.000000
_cell_length_b                         20.000000
_cell_length_c                         160.000000
_cell_angle_alpha                      90.0000
_cell_angle_beta                       90.0000
_cell_angle_gamma                      90.0000
_symmetry_space_group_name_H-M_alt     'P 1'
_symmetry_Int_Tables_number            1

# Symmetry operations
loop_
    _space_group_symop_id
    _space_group_symop_operation_xyz
    1    'x,y,z'

# Atomic types
loop_
    _atom_site_type_symbol
    _atom_type_oxidation_number
    Ce4+  4.0000
    O2-  -2.0000

# Atomic sites
loop_
    _atom_site_label
    _atom_site_type_symbol
    _atom_site_occupancy
    _atom_site_fract_x
    _atom_site_fract_y
    _atom_site_fract_z
    _atom_site_thermal_displace_type
    _atom_site_U_iso_or_equiv
    Ce1  Ce4+  1.0000  0.000000  0.000000  0.000000  Uiso  0.001267
    Ce1  Ce4+  1.0000  0.270580  0.000000  0.000000  Uiso  0.001267
    Ce1  Ce4+  1.0000  0.541160  0.000000  0.000000  Uiso  0.001267
    Ce1  Ce4+  1.0000  0.811740  0.000000  0.000000  Uiso  0.001267
    Ce1  Ce4+  1.0000  0.000000  0.270580  0.000000  Uiso  0.001267
    Ce1  Ce4+  1.0000  0.270580  0.270580  0.000000  Uiso  0.001267
    Ce1  Ce4+  1.0000  0.541160  0.270580  0.000000  Uiso  0.001267
    Ce1  Ce4+  1.0000  0.811740  0.270580  0.000000  Uiso  0.001267
    Ce1  Ce4+  1.0000  0.000000  0.541160  0.000000  Uiso  0.001267
    Ce1  Ce4+  1.0000  0.270580  0.541160  0.000000  Uiso  0.001267
    Ce1  Ce4+  1.0000  0.541160  0.541160  0.000000  Uiso  0.001267
    Ce1  Ce4+  1.0000  0.811740  0.541160  0.000000  Uiso  0.001267
    Ce1  Ce4+  1.0000  0.000000  0.811740  0.000000  Uiso  0.001267
    Ce1  Ce4+  1.0000  0.270580  0.811740  0.000000  Uiso  0.001267
    Ce1  Ce4+  1.0000  0.541160  0.811740  0.000000  Uiso  0.001267
    Ce1  Ce4+  1.0000  0.811740  0.811740  0.000000  Uiso  0.001267
    Ce1  Ce4+  1.0000  0.000000  0.000000  0.033820  Uiso  0.001267
    Ce1  Ce4+  1.0000  0.270580  0.000000  0.033820  Uiso  0.001267
    Ce1  Ce4+  1.0000  0.541160  0.000000  0.033820  Uiso  0.001267
    Ce1  Ce4+  1.0000  0.811740  0.000000  0.033820  Uiso  0.001267
    Ce1  Ce4+  1.0000  0.000000  0.270580  0.033820  Uiso  0.001267
    Ce1  Ce4+  1.0000  0.270580  0.270580  0.033820  Uiso  0.001267
    Ce1  Ce4+  1.0000  0.541160  0.270580  0.033820  Uiso  0.001267
    Ce1  Ce4+  1.0000  0.811740  0.270580  0.033820  Uiso  0.001267
    Ce1  Ce4+  1.0000  0.000000  0.541160  0.033820  Uiso  0.001267
    Ce1  Ce4+  1.0000  0.270580  0.541160  0.033820  Uiso  0.001267
    Ce1  Ce4+  1.0000  0.541160  0.541160  0.033820  Uiso  0.001267
    Ce1  Ce4+  1.0000  0.811740  0.541160  0.033820  Uiso  0.001267
    Ce1  Ce4+  1.0000  0.000000  0.811740  0.033820  Uiso  0.001267
    Ce1  Ce4+  1.0000  0.270580  0.811740  0.033820  Uiso  0.001267
    Ce1  Ce4+  1.0000  0.541160  0.811740  0.033820  Uiso  0.001267
    Ce1  Ce4+  1.0000  0.811740  0.811740  0.033820  Uiso  0.001267
    Ce1  Ce4+  1.0000  0.000000  0.000000  0.067650  Uiso  0.001267
    Ce1  Ce4+  1.0000  0.270580  0.000000  0.067650  Uiso  0.001267
    Ce1  Ce4+  1.0000  0.541160  0.000000  0.067650  Uiso  0.001267
    Ce1  Ce4+  1.0000  0.811740  0.000000  0.067650  Uiso  0.001267
    Ce1  Ce4+  1.0000  0.000000  0.270580  0.067650  Uiso  0.001267
    Ce1  Ce4+  1.0000  0.270580  0.270580  0.067650  Uiso  0.001267
    Ce1  Ce4+  1.0000  0.541160  0.270580  0.067650  Uiso  0.001267
    Ce1  Ce4+  1.0000  0.811740  0.270580  0.067650  Uiso  0.001267
    Ce1  Ce4+  1.0000  0.000000  0.541160  0.067650  Uiso  0.001267
    Ce1  Ce4+  1.0000  0.270580  0.541160  0.067650  Uiso  0.001267
    Ce1  Ce4+  1.0000  0.541160  0.541160  0.067650  Uiso  0.001267
    Ce1  Ce4+  1.0000  0.811740  0.541160  0.067650  Uiso  0.001267
    Ce1  Ce4+  1.0000  0.000000  0.811740  0.067650  Uiso  0.001267
    Ce1  Ce4+  1.0000  0.270580  0.811740  0.067650  Uiso  0.001267
    Ce1  Ce4+  1.0000  0.541160  0.811740  0.067650  Uiso  0.001267
    Ce1  Ce4+  1.0000  0.811740  0.811740  0.067650  Uiso  0.001267
    Ce1  Ce4+  1.0000  0.000000  0.000000  0.101470  Uiso  0.001267
    Ce1  Ce4+  1.0000  0.270580  0.000000  0.101470  Uiso  0.001267
    Ce1  Ce4+  1.0000  0.541160  0.000000  0.101470  Uiso  0.001267
    Ce1  Ce4+  1.0000  0.811740  0.000000  0.101470  Uiso  0.001267
    Ce1  Ce4+  1.0000  0.000000  0.270580  0.101470  Uiso  0.001267
    Ce1  Ce4+  1.0000  0.270580  0.270580  0.101470  Uiso  0.001267
    Ce1  Ce4+  1.0000  0.541160  0.270580  0.101470  Uiso  0.001267
    Ce1  Ce4+  1.0000  0.811740  0.270580  0.101470  Uiso  0.001267
    Ce1  Ce4+  1.0000  0.000000  0.541160  0.101470  Uiso  0.001267
    Ce1  Ce4+  1.0000  0.270580  0.541160  0.101470  Uiso  0.001267
    Ce1  Ce4+  1.0000  0.541160  0.541160  0.101470  Uiso  0.001267
    Ce1  Ce4+  1.0000  0.811740  0.541160  0.101470  Uiso  0.001267
    Ce1  Ce4+  1.0000  0.000000  0.811740  0.101470  Uiso  0.001267
    Ce1  Ce4+  1.0000  0.270580  0.811740  0.101470  Uiso  0.001267
    Ce1  Ce4+  1.0000  0.541160  0.811740  0.101470  Uiso  0.001267
    Ce1  Ce4+  1.0000  0.811740  0.811740  0.101470  Uiso  0.001267
    Ce1  Ce4+  1.0000  0.000000  0.000000  0.135290  Uiso  0.001267
    Ce1  Ce4+  1.0000  0.270580  0.000000  0.135290  Uiso  0.001267
    Ce1  Ce4+  1.0000  0.541160  0.000000  0.135290  Uiso  0.001267
    Ce1  Ce4+  1.0000  0.811740  0.000000  0.135290  Uiso  0.001267
    Ce1  Ce4+  1.0000  0.000000  0.270580  0.135290  Uiso  0.001267
    Ce1  Ce4+  1.0000  0.270580  0.270580  0.135290  Uiso  0.001267
    Ce1  Ce4+  1.0000  0.541160  0.270580  0.135290  Uiso  0.001267
    Ce1  Ce4+  1.0000  0.811740  0.270580  0.135290  Uiso  0.001267
    Ce1  Ce4+  1.0000  0.000000  0.541160  0.135290  Uiso  0.001267
    Ce1  Ce4+  1.0000  0.270580  0.541160  0.135290  Uiso  0.001267
    Ce1  Ce4+  1.0000  0.541160  0.541160  0.135290  Uiso  0.001267
    Ce1  Ce4+  1.0000  0.811740  0.541160  0.135290  Uiso  0.001267
    Ce1  Ce4+  1.0000  0.000000  0.811740  0.135290  Uiso  0.001267
    Ce1  Ce4+  1.0000  0.270580  0.811740  0.135290  Uiso  0.001267
    Ce1  Ce4+  1.0000  0.541160  0.811740  0.135290  Uiso  0.001267
    Ce1  Ce4+  1.0000  0.811740  0.811740  0.135290  Uiso  0.001267
    Ce1  Ce4+  1.0000  0.000000  0.000000  0.169110  Uiso  0.001267
    Ce1  Ce4+  1.0000  0.270580  0.000000  0.169110  Uiso  0.001267
    Ce1  Ce4+  1.0000  0.541160  0.000000  0.169110  Uiso  0.001267
    Ce1  Ce4+  1.0000  0.811740  0.000000  0.169110  Uiso  0.001267
    Ce1  Ce4+  1.0000  0.000000  0.270580  0.169110  Uiso  0.001267
    Ce1  Ce4+  1.0000  0.270580  0.270580  0.169110  Uiso  0.001267
    Ce1  Ce4+  1.0000  0.541160  0.270580  0.169110  Uiso  0.001267
    Ce1  Ce4+  1.0000  0.811740  0.270580  0.169110  Uiso  0.001267
    Ce1  Ce4+  1.0000  0.000000  0.541160  0.169110  Uiso  0.001267
    Ce1  Ce4+  1.0000  0.270580  0.541160  0.169110  Uiso  0.001267
    Ce1  Ce4+  1.0000  0.541160  0.541160  0.169110  Uiso  0.001267
    Ce1  Ce4+  1.0000  0.811740  0.541160  0.169110  Uiso  0.001267
    Ce1  Ce4+  1.0000  0.000000  0.811740  0.169110  Uiso  0.001267
    Ce1  Ce4+  1.0000  0.270580  0.811740  0.169110  Uiso  0.001267
    Ce1  Ce4+  1.0000  0.541160  0.811740  0.169110  Uiso  0.001267
    Ce1  Ce4+  1.0000  0.811740  0.811740  0.169110  Uiso  0.001267
    Ce1  Ce4+  1.0000  0.000000  0.000000  0.202940  Uiso  0.001267
    Ce1  Ce4+  1.0000  0.270580  0.000000  0.202940  Uiso  0.001267
    Ce1  Ce4+  1.0000  0.541160  0.000000  0.202940  Uiso  0.001267
    Ce1  Ce4+  1.0000  0.811740  0.000000  0.202940  Uiso  0.001267
    Ce1  Ce4+  1.0000  0.000000  0.270580  0.202940  Uiso  0.001267
    Ce1  Ce4+  1.0000  0.270580  0.270580  0.202940  Uiso  0.001267
    Ce1  Ce4+  1.0000  0.541160  0.270580  0.202940  Uiso  0.001267
    Ce1  Ce4+  1.0000  0.811740  0.270580  0.202940  Uiso  0.001267
    Ce1  Ce4+  1.0000  0.000000  0.541160  0.202940  Uiso  0.001267
    Ce1  Ce4+  1.0000  0.270580  0.541160  0.202940  Uiso  0.001267
    Ce1  Ce4+  1.0000  0.541160  0.541160  0.202940  Uiso  0.001267
    Ce1  Ce4+  1.0000  0.811740  0.541160  0.202940  Uiso  0.001267
    Ce1  Ce4+  1.0000  0.000000  0.811740  0.202940  Uiso  0.001267
    Ce1  Ce4+  1.0000  0.270580  0.811740  0.202940  Uiso  0.001267
    Ce1  Ce4+  1.0000  0.541160  0.811740  0.202940  Uiso  0.001267
    Ce1  Ce4+  1.0000  0.811740  0.811740  0.202940  Uiso  0.001267
    Ce1  Ce4+  1.0000  0.000000  0.000000  0.236760  Uiso  0.001267
    Ce1  Ce4+  1.0000  0.270580  0.000000  0.236760  Uiso  0.001267
    Ce1  Ce4+  1.0000  0.541160  0.000000  0.236760  Uiso  0.001267
    Ce1  Ce4+  1.0000  0.811740  0.000000  0.236760  Uiso  0.001267
    Ce1  Ce4+  1.0000  0.000000  0.270580  0.236760  Uiso  0.001267
    Ce1  Ce4+  1.0000  0.270580  0.270580  0.236760  Uiso  0.001267
    Ce1  Ce4+  1.0000  0.541160  0.270580  0.236760  Uiso  0.001267
    Ce1  Ce4+  1.0000  0.811740  0.270580  0.236760  Uiso  0.001267
    Ce1  Ce4+  1.0000  0.000000  0.541160  0.236760  Uiso  0.001267
    Ce1  Ce4+  1.0000  0.270580  0.541160  0.236760  Uiso  0.001267
    Ce1  Ce4+  1.0000  0.541160  0.541160  0.236760  Uiso  0.001267
    Ce1  Ce4+  1.0000  0.811740  0.541160  0.236760  Uiso  0.001267
    Ce1  Ce4+  1.0000  0.000000  0.811740  0.236760  Uiso  0.001267
    Ce1  Ce4+  1.0000  0.270580  0.811740  0.236760  Uiso  0.001267
    Ce1  Ce4+  1.0000  0.541160  0.811740  0.236760  Uiso  0.001267
    Ce1  Ce4+  1.0000  0.811740  0.811740  0.236760  Uiso  0.001267
    Ce1  Ce4+  1.0000  0.000000  0.000000  0.270580  Uiso  0.001267
    Ce1  Ce4+  1.0000  0.270580  0.000000  0.270580  Uiso  0.001267
    Ce1  Ce4+  1.0000  0.541160  0.000000  0.270580  Uiso  0.001267
    Ce1  Ce4+  1.0000  0.811740  0.000000  0.270580  Uiso  0.001267
    Ce1  Ce4+  1.0000  0.000000  0.270580  0.270580  Uiso  0.001267
    Ce1  Ce4+  1.0000  0.270580  0.270580  0.270580  Uiso  0.001267
    Ce1  Ce4+  1.0000  0.541160  0.270580  0.270580  Uiso  0.001267
    Ce1  Ce4+  1.0000  0.811740  0.270580  0.270580  Uiso  0.001267
    Ce1  Ce4+  1.0000  0.000000  0.541160  0.270580  Uiso  0.001267
    Ce1  Ce4+  1.0000  0.270580  0.541160  0.270580  Uiso  0.001267
    Ce1  Ce4+  1.0000  0.541160  0.541160  0.270580  Uiso  0.001267
    Ce1  Ce4+  1.0000  0.811740  0.541160  0.270580  Uiso  0.001267
    Ce1  Ce4+  1.0000  0.000000  0.811740  0.270580  Uiso  0.001267
    Ce1  Ce4+  1.0000  0.270580  0.811740  0.270580  Uiso  0.001267
    Ce1  Ce4+  1.0000  0.541160  0.811740  0.270580  Uiso  0.001267
    Ce1  Ce4+  1.0000  0.811740  0.811740  0.270580  Uiso  0.001267
    Ce1  Ce4+  1.0000  0.000000  0.000000  0.304400  Uiso  0.001267
    Ce1  Ce4+  1.0000  0.270580  0.000000  0.304400  Uiso  0.001267
    Ce1  Ce4+  1.0000  0.541160  0.000000  0.304400  Uiso  0.001267
    Ce1  Ce4+  1.0000  0.811740  0.000000  0.304400  Uiso  0.001267
    Ce1  Ce4+  1.0000  0.000000  0.270580  0.304400  Uiso  0.001267
    Ce1  Ce4+  1.0000  0.270580  0.270580  0.304400  Uiso  0.001267
    Ce1  Ce4+  1.0000  0.541160  0.270580  0.304400  Uiso  0.001267
    Ce1  Ce4+  1.0000  0.811740  0.270580  0.304400  Uiso  0.001267
    Ce1  Ce4+  1.0000  0.000000  0.541160  0.304400  Uiso  0.001267
    Ce1  Ce4+  1.0000  0.270580  0.541160  0.304400  Uiso  0.001267
    Ce1  Ce4+  1.0000  0.541160  0.541160  0.304400  Uiso  0.001267
    Ce1  Ce4+  1.0000  0.811740  0.541160  0.304400  Uiso  0.001267
    Ce1  Ce4+  1.0000  0.000000  0.811740  0.304400  Uiso  0.001267
    Ce1  Ce4+  1.0000  0.270580  0.811740  0.304400  Uiso  0.001267
    Ce1  Ce4+  1.0000  0.541160  0.811740  0.304400  Uiso  0.001267
    Ce1  Ce4+  1.0000  0.811740  0.811740  0.304400  Uiso  0.001267
    Ce1  Ce4+  1.0000  0.000000  0.000000  0.338230  Uiso  0.001267
    Ce1  Ce4+  1.0000  0.270580  0.000000  0.338230  Uiso  0.001267
    Ce1  Ce4+  1.0000  0.541160  0.000000  0.338230  Uiso  0.001267
    Ce1  Ce4+  1.0000  0.811740  0.000000  0.338230  Uiso  0.001267
    Ce1  Ce4+  1.0000  0.000000  0.270580  0.338230  Uiso  0.001267
    Ce1  Ce4+  1.0000  0.270580  0.270580  0.338230  Uiso  0.001267
    Ce1  Ce4+  1.0000  0.541160  0.270580  0.338230  Uiso  0.001267
    Ce1  Ce4+  1.0000  0.811740  0.270580  0.338230  Uiso  0.001267
    Ce1  Ce4+  1.0000  0.000000  0.541160  0.338230  Uiso  0.001267
    Ce1  Ce4+  1.0000  0.270580  0.541160  0.338230  Uiso  0.001267
    Ce1  Ce4+  1.0000  0.541160  0.541160  0.338230  Uiso  0.001267
    Ce1  Ce4+  1.0000  0.811740  0.541160  0.338230  Uiso  0.001267
    Ce1  Ce4+  1.0000  0.000000  0.811740  0.338230  Uiso  0.001267
    Ce1  Ce4+  1.0000  0.270580  0.811740  0.338230  Uiso  0.001267
    Ce1  Ce4+  1.0000  0.541160  0.811740  0.338230  Uiso  0.001267
    Ce1  Ce4+  1.0000  0.811740  0.811740  0.338230  Uiso  0.001267
    Ce1  Ce4+  1.0000  0.000000  0.000000  0.372050  Uiso  0.001267
    Ce1  Ce4+  1.0000  0.270580  0.000000  0.372050  Uiso  0.001267
    Ce1  Ce4+  1.0000  0.541160  0.000000  0.372050  Uiso  0.001267
    Ce1  Ce4+  1.0000  0.811740  0.000000  0.372050  Uiso  0.001267
    Ce1  Ce4+  1.0000  0.000000  0.270580  0.372050  Uiso  0.001267
    Ce1  Ce4+  1.0000  0.270580  0.270580  0.372050  Uiso  0.001267
    Ce1  Ce4+  1.0000  0.541160  0.270580  0.372050  Uiso  0.001267
    Ce1  Ce4+  1.0000  0.811740  0.270580  0.372050  Uiso  0.001267
    Ce1  Ce4+  1.0000  0.000000  0.541160  0.372050  Uiso  0.001267
    Ce1  Ce4+  1.0000  0.270580  0.541160  0.372050  Uiso  0.001267
    Ce1  Ce4+  1.0000  0.541160  0.541160  0.372050  Uiso  0.001267
    Ce1  Ce4+  1.0000  0.811740  0.541160  0.372050  Uiso  0.001267
    Ce1  Ce4+  1.0000  0.000000  0.811740  0.372050  Uiso  0.001267
    Ce1  Ce4+  1.0000  0.270580  0.811740  0.372050  Uiso  0.001267
    Ce1  Ce4+  1.0000  0.541160  0.811740  0.372050  Uiso  0.001267
    Ce1  Ce4+  1.0000  0.811740  0.811740  0.372050  Uiso  0.001267
    Ce1  Ce4+  1.0000  0.000000  0.000000  0.405870  Uiso  0.001267
    Ce1  Ce4+  1.0000  0.270580  0.000000  0.405870  Uiso  0.001267
    Ce1  Ce4+  1.0000  0.541160  0.000000  0.405870  Uiso  0.001267
    Ce1  Ce4+  1.0000  0.811740  0.000000  0.405870  Uiso  0.001267
    Ce1  Ce4+  1.0000  0.000000  0.270580  0.405870  Uiso  0.001267
    Ce1  Ce4+  1.0000  0.270580  0.270580  0.405870  Uiso  0.001267
    Ce1  Ce4+  1.0000  0.541160  0.270580  0.405870  Uiso  0.001267
    Ce1  Ce4+  1.0000  0.811740  0.270580  0.405870  Uiso  0.001267
    Ce1  Ce4+  1.0000  0.000000  0.541160  0.405870  Uiso  0.001267
    Ce1  Ce4+  1.0000  0.270580  0.541160  0.405870  Uiso  0.001267
    Ce1  Ce4+  1.0000  0.541160  0.541160  0.405870  Uiso  0.001267
    Ce1  Ce4+  1.0000  0.811740  0.541160  0.405870  Uiso  0.001267
    Ce1  Ce4+  1.0000  0.000000  0.811740  0.405870  Uiso  0.001267
    Ce1  Ce4+  1.0000  0.270580  0.811740  0.405870  Uiso  0.001267
    Ce1  Ce4+  1.0000  0.541160  0.811740  0.405870  Uiso  0.001267
    Ce1  Ce4+  1.0000  0.811740  0.811740  0.405870  Uiso  0.001267
    Ce1  Ce4+  1.0000  0.000000  0.000000  0.439690  Uiso  0.001267
    Ce1  Ce4+  1.0000  0.270580  0.000000  0.439690  Uiso  0.001267
    Ce1  Ce4+  1.0000  0.541160  0.000000  0.439690  Uiso  0.001267
    Ce1  Ce4+  1.0000  0.811740  0.000000  0.439690  Uiso  0.001267
    Ce1  Ce4+  1.0000  0.000000  0.270580  0.439690  Uiso  0.001267
    Ce1  Ce4+  1.0000  0.270580  0.270580  0.439690  Uiso  0.001267
    Ce1  Ce4+  1.0000  0.541160  0.270580  0.439690  Uiso  0.001267
    Ce1  Ce4+  1.0000  0.811740  0.270580  0.439690  Uiso  0.001267
    Ce1  Ce4+  1.0000  0.000000  0.541160  0.439690  Uiso  0.001267
    Ce1  Ce4+  1.0000  0.270580  0.541160  0.439690  Uiso  0.001267
    Ce1  Ce4+  1.0000  0.541160  0.541160  0.439690  Uiso  0.001267
    Ce1  Ce4+  1.0000  0.811740  0.541160  0.439690  Uiso  0.001267
    Ce1  Ce4+  1.0000  0.000000  0.811740  0.439690  Uiso  0.001267
    Ce1  Ce4+  1.0000  0.270580  0.811740  0.439690  Uiso  0.001267
    Ce1  Ce4+  1.0000  0.541160  0.811740  0.439690  Uiso  0.001267
    Ce1  Ce4+  1.0000  0.811740  0.811740  0.439690  Uiso  0.001267
    Ce1  Ce4+  1.0000  0.000000  0.000000  0.473520  Uiso  0.001267
    Ce1  Ce4+  1.0000  0.270580  0.000000  0.473520  Uiso  0.001267
    Ce1  Ce4+  1.0000  0.541160  0.000000  0.473520  Uiso  0.001267
    Ce1  Ce4+  1.0000  0.811740  0.000000  0.473520  Uiso  0.001267
    Ce1  Ce4+  1.0000  0.000000  0.270580  0.473520  Uiso  0.001267
    Ce1  Ce4+  1.0000  0.270580  0.270580  0.473520  Uiso  0.001267
    Ce1  Ce4+  1.0000  0.541160  0.270580  0.473520  Uiso  0.001267
    Ce1  Ce4+  1.0000  0.811740  0.270580  0.473520  Uiso  0.001267
    Ce1  Ce4+  1.0000  0.000000  0.541160  0.473520  Uiso  0.001267
    Ce1  Ce4+  1.0000  0.270580  0.541160  0.473520  Uiso  0.001267
    Ce1  Ce4+  1.0000  0.541160  0.541160  0.473520  Uiso  0.001267
    Ce1  Ce4+  1.0000  0.811740  0.541160  0.473520  Uiso  0.001267
    Ce1  Ce4+  1.0000  0.000000  0.811740  0.473520  Uiso  0.001267
    Ce1  Ce4+  1.0000  0.270580  0.811740  0.473520  Uiso  0.001267
    Ce1  Ce4+  1.0000  0.541160  0.811740  0.473520  Uiso  0.001267
    Ce1  Ce4+  1.0000  0.811740  0.811740  0.473520  Uiso  0.001267
    Ce1  Ce4+  1.0000  0.000000  0.000000  0.507340  Uiso  0.001267
    Ce1  Ce4+  1.0000  0.270580  0.000000  0.507340  Uiso  0.001267
    Ce1  Ce4+  1.0000  0.541160  0.000000  0.507340  Uiso  0.001267
    Ce1  Ce4+  1.0000  0.811740  0.000000  0.507340  Uiso  0.001267
    Ce1  Ce4+  1.0000  0.000000  0.270580  0.507340  Uiso  0.001267
    Ce1  Ce4+  1.0000  0.270580  0.270580  0.507340  Uiso  0.001267
    Ce1  Ce4+  1.0000  0.541160  0.270580  0.507340  Uiso  0.001267
    Ce1  Ce4+  1.0000  0.811740  0.270580  0.507340  Uiso  0.001267
    Ce1  Ce4+  1.0000  0.000000  0.541160  0.507340  Uiso  0.001267
    Ce1  Ce4+  1.0000  0.270580  0.541160  0.507340  Uiso  0.001267
    Ce1  Ce4+  1.0000  0.541160  0.541160  0.507340  Uiso  0.001267
    Ce1  Ce4+  1.0000  0.811740  0.541160  0.507340  Uiso  0.001267
    Ce1  Ce4+  1.0000  0.000000  0.811740  0.507340  Uiso  0.001267
    Ce1  Ce4+  1.0000  0.270580  0.811740  0.507340  Uiso  0.001267
    Ce1  Ce4+  1.0000  0.541160  0.811740  0.507340  Uiso  0.001267
    Ce1  Ce4+  1.0000  0.811740  0.811740  0.507340  Uiso  0.001267
    Ce1  Ce4+  1.0000  0.000000  0.000000  0.541160  Uiso  0.001267
    Ce1  Ce4+  1.0000  0.270580  0.000000  0.541160  Uiso  0.001267
    Ce1  Ce4+  1.0000  0.541160  0.000000  0.541160  Uiso  0.001267
    Ce1  Ce4+  1.0000  0.811740  0.000000  0.541160  Uiso  0.001267
    Ce1  Ce4+  1.0000  0.000000  0.270580  0.541160  Uiso  0.001267
    Ce1  Ce4+  1.0000  0.270580  0.270580  0.541160  Uiso  0.001267
    Ce1  Ce4+  1.0000  0.541160  0.270580  0.541160  Uiso  0.001267
    Ce1  Ce4+  1.0000  0.811740  0.270580  0.541160  Uiso  0.001267
    Ce1  Ce4+  1.0000  0.000000  0.541160  0.541160  Uiso  0.001267
    Ce1  Ce4+  1.0000  0.270580  0.541160  0.541160  Uiso  0.001267
    Ce1  Ce4+  1.0000  0.541160  0.541160  0.541160  Uiso  0.001267
    Ce1  Ce4+  1.0000  0.811740  0.541160  0.541160  Uiso  0.001267
    Ce1  Ce4+  1.0000  0.000000  0.811740  0.541160  Uiso  0.001267
    Ce1  Ce4+  1.0000  0.270580  0.811740  0.541160  Uiso  0.001267
    Ce1  Ce4+  1.0000  0.541160  0.811740  0.541160  Uiso  0.001267
    Ce1  Ce4+  1.0000  0.811740  0.811740  0.541160  Uiso  0.001267
    Ce1  Ce4+  1.0000  0.000000  0.000000  0.574980  Uiso  0.001267
    Ce1  Ce4+  1.0000  0.270580  0.000000  0.574980  Uiso  0.001267
    Ce1  Ce4+  1.0000  0.541160  0.000000  0.574980  Uiso  0.001267
    Ce1  Ce4+  1.0000  0.811740  0.000000  0.574980  Uiso  0.001267
    Ce1  Ce4+  1.0000  0.000000  0.270580  0.574980  Uiso  0.001267
    Ce1  Ce4+  1.0000  0.270580  0.270580  0.574980  Uiso  0.001267
    Ce1  Ce4+  1.0000  0.541160  0.270580  0.574980  Uiso  0.001267
    Ce1  Ce4+  1.0000  0.811740  0.270580  0.574980  Uiso  0.001267
    Ce1  Ce4+  1.0000  0.000000  0.541160  0.574980  Uiso  0.001267
    Ce1  Ce4+  1.0000  0.270580  0.541160  0.574980  Uiso  0.001267
    Ce1  Ce4+  1.0000  0.541160  0.541160  0.574980  Uiso  0.001267
    Ce1  Ce4+  1.0000  0.811740  0.541160  0.574980  Uiso  0.001267
    Ce1  Ce4+  1.0000  0.000000  0.811740  0.574980  Uiso  0.001267
    Ce1  Ce4+  1.0000  0.270580  0.811740  0.574980  Uiso  0.001267
    Ce1  Ce4+  1.0000  0.541160  0.811740  0.574980  Uiso  0.001267
    Ce1  Ce4+  1.0000  0.811740  0.811740  0.574980  Uiso  0.001267
    Ce1  Ce4+  1.0000  0.000000  0.000000  0.608810  Uiso  0.001267
    Ce1  Ce4+  1.0000  0.270580  0.000000  0.608810  Uiso  0.001267
    Ce1  Ce4+  1.0000  0.541160  0.000000  0.608810  Uiso  0.001267
    Ce1  Ce4+  1.0000  0.811740  0.000000  0.608810  Uiso  0.001267
    Ce1  Ce4+  1.0000  0.000000  0.270580  0.608810  Uiso  0.001267
    Ce1  Ce4+  1.0000  0.270580  0.270580  0.608810  Uiso  0.001267
    Ce1  Ce4+  1.0000  0.541160  0.270580  0.608810  Uiso  0.001267
    Ce1  Ce4+  1.0000  0.811740  0.270580  0.608810  Uiso  0.001267
    Ce1  Ce4+  1.0000  0.000000  0.541160  0.608810  Uiso  0.001267
    Ce1  Ce4+  1.0000  0.270580  0.541160  0.608810  Uiso  0.001267
    Ce1  Ce4+  1.0000  0.541160  0.541160  0.608810  Uiso  0.001267
    Ce1  Ce4+  1.0000  0.811740  0.541160  0.608810  Uiso  0.001267
    Ce1  Ce4+  1.0000  0.000000  0.811740  0.608810  Uiso  0.001267
    Ce1  Ce4+  1.0000  0.270580  0.811740  0.608810  Uiso  0.001267
    Ce1  Ce4+  1.0000  0.541160  0.811740  0.608810  Uiso  0.001267
    Ce1  Ce4+  1.0000  0.811740  0.811740  0.608810  Uiso  0.001267
    Ce1  Ce4+  1.0000  0.000000  0.000000  0.642630  Uiso  0.001267
    Ce1  Ce4+  1.0000  0.270580  0.000000  0.642630  Uiso  0.001267
    Ce1  Ce4+  1.0000  0.541160  0.000000  0.642630  Uiso  0.001267
    Ce1  Ce4+  1.0000  0.811740  0.000000  0.642630  Uiso  0.001267
    Ce1  Ce4+  1.0000  0.000000  0.270580  0.642630  Uiso  0.001267
    Ce1  Ce4+  1.0000  0.270580  0.270580  0.642630  Uiso  0.001267
    Ce1  Ce4+  1.0000  0.541160  0.270580  0.642630  Uiso  0.001267
    Ce1  Ce4+  1.0000  0.811740  0.270580  0.642630  Uiso  0.001267
    Ce1  Ce4+  1.0000  0.000000  0.541160  0.642630  Uiso  0.001267
    Ce1  Ce4+  1.0000  0.270580  0.541160  0.642630  Uiso  0.001267
    Ce1  Ce4+  1.0000  0.541160  0.541160  0.642630  Uiso  0.001267
    Ce1  Ce4+  1.0000  0.811740  0.541160  0.642630  Uiso  0.001267
    Ce1  Ce4+  1.0000  0.000000  0.811740  0.642630  Uiso  0.001267
    Ce1  Ce4+  1.0000  0.270580  0.811740  0.642630  Uiso  0.001267
    Ce1  Ce4+  1.0000  0.541160  0.811740  0.642630  Uiso  0.001267
    Ce1  Ce4+  1.0000  0.811740  0.811740  0.642630  Uiso  0.001267
    Ce1  Ce4+  1.0000  0.000000  0.000000  0.676450  Uiso  0.001267
    Ce1  Ce4+  1.0000  0.270580  0.000000  0.676450  Uiso  0.001267
    Ce1  Ce4+  1.0000  0.541160  0.000000  0.676450  Uiso  0.001267
    Ce1  Ce4+  1.0000  0.811740  0.000000  0.676450  Uiso  0.001267
    Ce1  Ce4+  1.0000  0.000000  0.270580  0.676450  Uiso  0.001267
    Ce1  Ce4+  1.0000  0.270580  0.270580  0.676450  Uiso  0.001267
    Ce1  Ce4+  1.0000  0.541160  0.270580  0.676450  Uiso  0.001267
    Ce1  Ce4+  1.0000  0.811740  0.270580  0.676450  Uiso  0.001267
    Ce1  Ce4+  1.0000  0.000000  0.541160  0.676450  Uiso  0.001267
    Ce1  Ce4+  1.0000  0.270580  0.541160  0.676450  Uiso  0.001267
    Ce1  Ce4+  1.0000  0.541160  0.541160  0.676450  Uiso  0.001267
    Ce1  Ce4+  1.0000  0.811740  0.541160  0.676450  Uiso  0.001267
    Ce1  Ce4+  1.0000  0.000000  0.811740  0.676450  Uiso  0.001267
    Ce1  Ce4+  1.0000  0.270580  0.811740  0.676450  Uiso  0.001267
    Ce1  Ce4+  1.0000  0.541160  0.811740  0.676450  Uiso  0.001267
    Ce1  Ce4+  1.0000  0.811740  0.811740  0.676450  Uiso  0.001267
    Ce1  Ce4+  1.0000  0.000000  0.000000  0.710270  Uiso  0.001267
    Ce1  Ce4+  1.0000  0.270580  0.000000  0.710270  Uiso  0.001267
    Ce1  Ce4+  1.0000  0.541160  0.000000  0.710270  Uiso  0.001267
    Ce1  Ce4+  1.0000  0.811740  0.000000  0.710270  Uiso  0.001267
    Ce1  Ce4+  1.0000  0.000000  0.270580  0.710270  Uiso  0.001267
    Ce1  Ce4+  1.0000  0.270580  0.270580  0.710270  Uiso  0.001267
    Ce1  Ce4+  1.0000  0.541160  0.270580  0.710270  Uiso  0.001267
    Ce1  Ce4+  1.0000  0.811740  0.270580  0.710270  Uiso  0.001267
    Ce1  Ce4+  1.0000  0.000000  0.541160  0.710270  Uiso  0.001267
    Ce1  Ce4+  1.0000  0.270580  0.541160  0.710270  Uiso  0.001267
    Ce1  Ce4+  1.0000  0.541160  0.541160  0.710270  Uiso  0.001267
    Ce1  Ce4+  1.0000  0.811740  0.541160  0.710270  Uiso  0.001267
    Ce1  Ce4+  1.0000  0.000000  0.811740  0.710270  Uiso  0.001267
    Ce1  Ce4+  1.0000  0.270580  0.811740  0.710270  Uiso  0.001267
    Ce1  Ce4+  1.0000  0.541160  0.811740  0.710270  Uiso  0.001267
    Ce1  Ce4+  1.0000  0.811740  0.811740  0.710270  Uiso  0.001267
    Ce1  Ce4+  1.0000  0.000000  0.000000  0.744100  Uiso  0.001267
    Ce1  Ce4+  1.0000  0.270580  0.000000  0.744100  Uiso  0.001267
    Ce1  Ce4+  1.0000  0.541160  0.000000  0.744100  Uiso  0.001267
    Ce1  Ce4+  1.0000  0.811740  0.000000  0.744100  Uiso  0.001267
    Ce1  Ce4+  1.0000  0.000000  0.270580  0.744100  Uiso  0.001267
    Ce1  Ce4+  1.0000  0.270580  0.270580  0.744100  Uiso  0.001267
    Ce1  Ce4+  1.0000  0.541160  0.270580  0.744100  Uiso  0.001267
    Ce1  Ce4+  1.0000  0.811740  0.270580  0.744100  Uiso  0.001267
    Ce1  Ce4+  1.0000  0.000000  0.541160  0.744100  Uiso  0.001267
    Ce1  Ce4+  1.0000  0.270580  0.541160  0.744100  Uiso  0.001267
    Ce1  Ce4+  1.0000  0.541160  0.541160  0.744100  Uiso  0.001267
    Ce1  Ce4+  1.0000  0.811740  0.541160  0.744100  Uiso  0.001267
    Ce1  Ce4+  1.0000  0.000000  0.811740  0.744100  Uiso  0.001267
    Ce1  Ce4+  1.0000  0.270580  0.811740  0.744100  Uiso  0.001267
    Ce1  Ce4+  1.0000  0.541160  0.811740  0.744100  Uiso  0.001267
    Ce1  Ce4+  1.0000  0.811740  0.811740  0.744100  Uiso  0.001267
    Ce1  Ce4+  1.0000  0.000000  0.000000  0.777920  Uiso  0.001267
    Ce1  Ce4+  1.0000  0.270580  0.000000  0.777920  Uiso  0.001267
    Ce1  Ce4+  1.0000  0.541160  0.000000  0.777920  Uiso  0.001267
    Ce1  Ce4+  1.0000  0.811740  0.000000  0.777920  Uiso  0.001267
    Ce1  Ce4+  1.0000  0.000000  0.270580  0.777920  Uiso  0.001267
    Ce1  Ce4+  1.0000  0.270580  0.270580  0.777920  Uiso  0.001267
    Ce1  Ce4+  1.0000  0.541160  0.270580  0.777920  Uiso  0.001267
    Ce1  Ce4+  1.0000  0.811740  0.270580  0.777920  Uiso  0.001267
    Ce1  Ce4+  1.0000  0.000000  0.541160  0.777920  Uiso  0.001267
    Ce1  Ce4+  1.0000  0.270580  0.541160  0.777920  Uiso  0.001267
    Ce1  Ce4+  1.0000  0.541160  0.541160  0.777920  Uiso  0.001267
    Ce1  Ce4+  1.0000  0.811740  0.541160  0.777920  Uiso  0.001267
    Ce1  Ce4+  1.0000  0.000000  0.811740  0.777920  Uiso  0.001267
    Ce1  Ce4+  1.0000  0.270580  0.811740  0.777920  Uiso  0.001267
    Ce1  Ce4+  1.0000  0.541160  0.811740  0.777920  Uiso  0.001267
    Ce1  Ce4+  1.0000  0.811740  0.811740  0.777920  Uiso  0.001267
    Ce1  Ce4+  1.0000  0.000000  0.000000  0.811740  Uiso  0.001267
    Ce1  Ce4+  1.0000  0.270580  0.000000  0.811740  Uiso  0.001267
    Ce1  Ce4+  1.0000  0.541160  0.000000  0.811740  Uiso  0.001267
    Ce1  Ce4+  1.0000  0.811740  0.000000  0.811740  Uiso  0.001267
    Ce1  Ce4+  1.0000  0.000000  0.270580  0.811740  Uiso  0.001267
    Ce1  Ce4+  1.0000  0.270580  0.270580  0.811740  Uiso  0.001267
    Ce1  Ce4+  1.0000  0.541160  0.270580  0.811740  Uiso  0.001267
    Ce1  Ce4+  1.0000  0.811740  0.270580  0.811740  Uiso  0.001267
    Ce1  Ce4+  1.0000  0.000000  0.541160  0.811740  Uiso  0.001267
    Ce1  Ce4+  1.0000  0.270580  0.541160  0.811740  Uiso  0.001267
    Ce1  Ce4+  1.0000  0.541160  0.541160  0.811740  Uiso  0.001267
    Ce1  Ce4+  1.0000  0.811740  0.541160  0.811740  Uiso  0.001267
    Ce1  Ce4+  1.0000  0.000000  0.811740  0.811740  Uiso  0.001267
    Ce1  Ce4+  1.0000  0.270580  0.811740  0.811740  Uiso  0.001267
    Ce1  Ce4+  1.0000  0.541160  0.811740  0.811740  Uiso  0.001267
    Ce1  Ce4+  1.0000  0.811740  0.811740  0.811740  Uiso  0.001267
    Ce1  Ce4+  1.0000  0.000000  0.000000  0.845560  Uiso  0.001267
    Ce1  Ce4+  1.0000  0.270580  0.000000  0.845560  Uiso  0.001267
    Ce1  Ce4+  1.0000  0.541160  0.000000  0.845560  Uiso  0.001267
    Ce1  Ce4+  1.0000  0.811740  0.000000  0.845560  Uiso  0.001267
    Ce1  Ce4+  1.0000  0.000000  0.270580  0.845560  Uiso  0.001267
    Ce1  Ce4+  1.0000  0.270580  0.270580  0.845560  Uiso  0.001267
    Ce1  Ce4+  1.0000  0.541160  0.270580  0.845560  Uiso  0.001267
    Ce1  Ce4+  1.0000  0.811740  0.270580  0.845560  Uiso  0.001267
    Ce1  Ce4+  1.0000  0.000000  0.541160  0.845560  Uiso  0.001267
    Ce1  Ce4+  1.0000  0.270580  0.541160  0.845560  Uiso  0.001267
    Ce1  Ce4+  1.0000  0.541160  0.541160  0.845560  Uiso  0.001267
    Ce1  Ce4+  1.0000  0.811740  0.541160  0.845560  Uiso  0.001267
    Ce1  Ce4+  1.0000  0.000000  0.811740  0.845560  Uiso  0.001267
    Ce1  Ce4+  1.0000  0.270580  0.811740  0.845560  Uiso  0.001267
    Ce1  Ce4+  1.0000  0.541160  0.811740  0.845560  Uiso  0.001267
    Ce1  Ce4+  1.0000  0.811740  0.811740  0.845560  Uiso  0.001267
    Ce1  Ce4+  1.0000  0.000000  0.000000  0.879390  Uiso  0.001267
    Ce1  Ce4+  1.0000  0.270580  0.000000  0.879390  Uiso  0.001267
    Ce1  Ce4+  1.0000  0.541160  0.000000  0.879390  Uiso  0.001267
    Ce1  Ce4+  1.0000  0.811740  0.000000  0.879390  Uiso  0.001267
    Ce1  Ce4+  1.0000  0.000000  0.270580  0.879390  Uiso  0.001267
    Ce1  Ce4+  1.0000  0.270580  0.270580  0.879390  Uiso  0.001267
    Ce1  Ce4+  1.0000  0.541160  0.270580  0.879390  Uiso  0.001267
    Ce1  Ce4+  1.0000  0.811740  0.270580  0.879390  Uiso  0.001267
    Ce1  Ce4+  1.0000  0.000000  0.541160  0.879390  Uiso  0.001267
    Ce1  Ce4+  1.0000  0.270580  0.541160  0.879390  Uiso  0.001267
    Ce1  Ce4+  1.0000  0.541160  0.541160  0.879390  Uiso  0.001267
    Ce1  Ce4+  1.0000  0.811740  0.541160  0.879390  Uiso  0.001267
    Ce1  Ce4+  1.0000  0.000000  0.811740  0.879390  Uiso  0.001267
    Ce1  Ce4+  1.0000  0.270580  0.811740  0.879390  Uiso  0.001267
    Ce1  Ce4+  1.0000  0.541160  0.811740  0.879390  Uiso  0.001267
    Ce1  Ce4+  1.0000  0.811740  0.811740  0.879390  Uiso  0.001267
    Ce1  Ce4+  1.0000  0.000000  0.000000  0.913210  Uiso  0.001267
    Ce1  Ce4+  1.0000  0.270580  0.000000  0.913210  Uiso  0.001267
    Ce1  Ce4+  1.0000  0.541160  0.000000  0.913210  Uiso  0.001267
    Ce1  Ce4+  1.0000  0.811740  0.000000  0.913210  Uiso  0.001267
    Ce1  Ce4+  1.0000  0.000000  0.270580  0.913210  Uiso  0.001267
    Ce1  Ce4+  1.0000  0.270580  0.270580  0.913210  Uiso  0.001267
    Ce1  Ce4+  1.0000  0.541160  0.270580  0.913210  Uiso  0.001267
    Ce1  Ce4+  1.0000  0.811740  0.270580  0.913210  Uiso  0.001267
    Ce1  Ce4+  1.0000  0.000000  0.541160  0.913210  Uiso  0.001267
    Ce1  Ce4+  1.0000  0.270580  0.541160  0.913210  Uiso  0.001267
    Ce1  Ce4+  1.0000  0.541160  0.541160  0.913210  Uiso  0.001267
    Ce1  Ce4+  1.0000  0.811740  0.541160  0.913210  Uiso  0.001267
    Ce1  Ce4+  1.0000  0.000000  0.811740  0.913210  Uiso  0.001267
    Ce1  Ce4+  1.0000  0.270580  0.811740  0.913210  Uiso  0.001267
    Ce1  Ce4+  1.0000  0.541160  0.811740  0.913210  Uiso  0.001267
    Ce1  Ce4+  1.0000  0.811740  0.811740  0.913210  Uiso  0.001267
    Ce1  Ce4+  1.0000  0.000000  0.000000  0.947030  Uiso  0.001267
    Ce1  Ce4+  1.0000  0.270580  0.000000  0.947030  Uiso  0.001267
    Ce1  Ce4+  1.0000  0.541160  0.000000  0.947030  Uiso  0.001267
    Ce1  Ce4+  1.0000  0.811740  0.000000  0.947030  Uiso  0.001267
    Ce1  Ce4+  1.0000  0.000000  0.270580  0.947030  Uiso  0.001267
    Ce1  Ce4+  1.0000  0.270580  0.270580  0.947030  Uiso  0.001267
    Ce1  Ce4+  1.0000  0.541160  0.270580  0.947030  Uiso  0.001267
    Ce1  Ce4+  1.0000  0.811740  0.270580  0.947030  Uiso  0.001267
    Ce1  Ce4+  1.0000  0.000000  0.541160  0.947030  Uiso  0.001267
    Ce1  Ce4+  1.0000  0.270580  0.541160  0.947030  Uiso  0.001267
    Ce1  Ce4+  1.0000  0.541160  0.541160  0.947030  Uiso  0.001267
    Ce1  Ce4+  1.0000  0.811740  0.541160  0.947030  Uiso  0.001267
    Ce1  Ce4+  1.0000  0.000000  0.811740  0.947030  Uiso  0.001267
    Ce1  Ce4+  1.0000  0.270580  0.811740  0.947030  Uiso  0.001267
    Ce1  Ce4+  1.0000  0.541160  0.811740  0.947030  Uiso  0.001267
    Ce1  Ce4+  1.0000  0.811740  0.811740  0.947030  Uiso  0.001267
    Ce1  Ce4+  1.0000  0.000000  0.000000  0.980850  Uiso  0.001267
    Ce1  Ce4+  1.0000  0.270580  0.000000  0.980850  Uiso  0.001267
    Ce1  Ce4+  1.0000  0.541160  0.000000  0.980850  Uiso  0.001267
    Ce1  Ce4+  1.0000  0.811740  0.000000  0.980850  Uiso  0.001267
    Ce1  Ce4+  1.0000  0.000000  0.270580  0.980850  Uiso  0.001267
    Ce1  Ce4+  1.0000  0.270580  0.270580  0.980850  Uiso  0.001267
    Ce1  Ce4+  1.0000  0.541160  0.270580  0.980850  Uiso  0.001267
    Ce1  Ce4+  1.0000  0.811740  0.270580  0.980850  Uiso  0.001267
    Ce1  Ce4+  1.0000  0.000000  0.541160  0.980850  Uiso  0.001267
    Ce1  Ce4+  1.0000  0.270580  0.541160  0.980850  Uiso  0.001267
    Ce1  Ce4+  1.0000  0.541160  0.541160  0.980850  Uiso  0.001267
    Ce1  Ce4+  1.0000  0.811740  0.541160  0.980850  Uiso  0.001267
    Ce1  Ce4+  1.0000  0.000000  0.811740  0.980850  Uiso  0.001267
    Ce1  Ce4+  1.0000  0.270580  0.811740  0.980850  Uiso  0.001267
    Ce1  Ce4+  1.0000  0.541160  0.811740  0.980850  Uiso  0.001267
    Ce1  Ce4+  1.0000  0.811740  0.811740  0.980850  Uiso  0.001267
    O1  O2-  1.0000  0.067650  0.067650  0.008460  Uiso  0.025330
    O1  O2-  1.0000  0.338230  0.067650  0.008460  Uiso  0.025330
    O1  O2-  1.0000  0.608810  0.067650  0.008460  Uiso  0.025330
    O1  O2-  1.0000  0.879390  0.067650  0.008460  Uiso  0.025330
    O1  O2-  1.0000  0.067650  0.338230  0.008460  Uiso  0.025330
    O1  O2-  1.0000  0.338230  0.338230  0.008460  Uiso  0.025330
    O1  O2-  1.0000  0.608810  0.338230  0.008460  Uiso  0.025330
    O1  O2-  1.0000  0.879390  0.338230  0.008460  Uiso  0.025330
    O1  O2-  1.0000  0.067650  0.608810  0.008460  Uiso  0.025330
    O1  O2-  1.0000  0.338230  0.608810  0.008460  Uiso  0.025330
    O1  O2-  1.0000  0.608810  0.608810  0.008460  Uiso  0.025330
    O1  O2-  1.0000  0.879390  0.608810  0.008460  Uiso  0.025330
    O1  O2-  1.0000  0.067650  0.879390  0.008460  Uiso  0.025330
    O1  O2-  1.0000  0.338230  0.879390  0.008460  Uiso  0.025330
    O1  O2-  1.0000  0.608810  0.879390  0.008460  Uiso  0.025330
    O1  O2-  1.0000  0.879390  0.879390  0.008460  Uiso  0.025330
    O1  O2-  1.0000  0.067650  0.067650  0.042280  Uiso  0.025330
    O1  O2-  1.0000  0.338230  0.067650  0.042280  Uiso  0.025330
    O1  O2-  1.0000  0.608810  0.067650  0.042280  Uiso  0.025330
    O1  O2-  1.0000  0.879390  0.067650  0.042280  Uiso  0.025330
    O1  O2-  1.0000  0.067650  0.338230  0.042280  Uiso  0.025330
    O1  O2-  1.0000  0.338230  0.338230  0.042280  Uiso  0.025330
    O1  O2-  1.0000  0.608810  0.338230  0.042280  Uiso  0.025330
    O1  O2-  1.0000  0.879390  0.338230  0.042280  Uiso  0.025330
    O1  O2-  1.0000  0.067650  0.608810  0.042280  Uiso  0.025330
    O1  O2-  1.0000  0.338230  0.608810  0.042280  Uiso  0.025330
    O1  O2-  1.0000  0.608810  0.608810  0.042280  Uiso  0.025330
    O1  O2-  1.0000  0.879390  0.608810  0.042280  Uiso  0.025330
    O1  O2-  1.0000  0.067650  0.879390  0.042280  Uiso  0.025330
    O1  O2-  1.0000  0.338230  0.879390  0.042280  Uiso  0.025330
    O1  O2-  1.0000  0.608810  0.879390  0.042280  Uiso  0.025330
    O1  O2-  1.0000  0.879390  0.879390  0.042280  Uiso  0.025330
    O1  O2-  1.0000  0.067650  0.067650  0.076100  Uiso  0.025330
    O1  O2-  1.0000  0.338230  0.067650  0.076100  Uiso  0.025330
    O1  O2-  1.0000  0.608810  0.067650  0.076100  Uiso  0.025330
    O1  O2-  1.0000  0.879390  0.067650  0.076100  Uiso  0.025330
    O1  O2-  1.0000  0.067650  0.338230  0.076100  Uiso  0.025330
    O1  O2-  1.0000  0.338230  0.338230  0.076100  Uiso  0.025330
    O1  O2-  1.0000  0.608810  0.338230  0.076100  Uiso  0.025330
    O1  O2-  1.0000  0.879390  0.338230  0.076100  Uiso  0.025330
    O1  O2-  1.0000  0.067650  0.608810  0.076100  Uiso  0.025330
    O1  O2-  1.0000  0.338230  0.608810  0.076100  Uiso  0.025330
    O1  O2-  1.0000  0.608810  0.608810  0.076100  Uiso  0.025330
    O1  O2-  1.0000  0.879390  0.608810  0.076100  Uiso  0.025330
    O1  O2-  1.0000  0.067650  0.879390  0.076100  Uiso  0.025330
    O1  O2-  1.0000  0.338230  0.879390  0.076100  Uiso  0.025330
    O1  O2-  1.0000  0.608810  0.879390  0.076100  Uiso  0.025330
    O1  O2-  1.0000  0.879390  0.879390  0.076100  Uiso  0.025330
    O1  O2-  1.0000  0.067650  0.067650  0.109920  Uiso  0.025330
    O1  O2-  1.0000  0.338230  0.067650  0.109920  Uiso  0.025330
    O1  O2-  1.0000  0.608810  0.067650  0.109920  Uiso  0.025330
    O1  O2-  1.0000  0.879390  0.067650  0.109920  Uiso  0.025330
    O1  O2-  1.0000  0.067650  0.338230  0.109920  Uiso  0.025330
    O1  O2-  1.0000  0.338230  0.338230  0.109920  Uiso  0.025330
    O1  O2-  1.0000  0.608810  0.338230  0.109920  Uiso  0.025330
    O1  O2-  1.0000  0.879390  0.338230  0.109920  Uiso  0.025330
    O1  O2-  1.0000  0.067650  0.608810  0.109920  Uiso  0.025330
    O1  O2-  1.0000  0.338230  0.608810  0.109920  Uiso  0.025330
    O1  O2-  1.0000  0.608810  0.608810  0.109920  Uiso  0.025330
    O1  O2-  1.0000  0.879390  0.608810  0.109920  Uiso  0.025330
    O1  O2-  1.0000  0.067650  0.879390  0.109920  Uiso  0.025330
    O1  O2-  1.0000  0.338230  0.879390  0.109920  Uiso  0.025330
    O1  O2-  1.0000  0.608810  0.879390  0.109920  Uiso  0.025330
    O1  O2-  1.0000  0.879390  0.879390  0.109920  Uiso  0.025330
    O1  O2-  1.0000  0.067650  0.067650  0.143750  Uiso  0.025330
    O1  O2-  1.0000  0.338230  0.067650  0.143750  Uiso  0.025330
    O1  O2-  1.0000  0.608810  0.067650  0.143750  Uiso  0.025330
    O1  O2-  1.0000  0.879390  0.067650  0.143750  Uiso  0.025330
    O1  O2-  1.0000  0.067650  0.338230  0.143750  Uiso  0.025330
    O1  O2-  1.0000  0.338230  0.338230  0.143750  Uiso  0.025330
    O1  O2-  1.0000  0.608810  0.338230  0.143750  Uiso  0.025330
    O1  O2-  1.0000  0.879390  0.338230  0.143750  Uiso  0.025330
    O1  O2-  1.0000  0.067650  0.608810  0.143750  Uiso  0.025330
    O1  O2-  1.0000  0.338230  0.608810  0.143750  Uiso  0.025330
    O1  O2-  1.0000  0.608810  0.608810  0.143750  Uiso  0.025330
    O1  O2-  1.0000  0.879390  0.608810  0.143750  Uiso  0.025330
    O1  O2-  1.0000  0.067650  0.879390  0.143750  Uiso  0.025330
    O1  O2-  1.0000  0.338230  0.879390  0.143750  Uiso  0.025330
    O1  O2-  1.0000  0.608810  0.879390  0.143750  Uiso  0.025330
    O1  O2-  1.0000  0.879390  0.879390  0.143750  Uiso  0.025330
    O1  O2-  1.0000  0.067650  0.067650  0.177570  Uiso  0.025330
    O1  O2-  1.0000  0.338230  0.067650  0.177570  Uiso  0.025330
    O1  O2-  1.0000  0.608810  0.067650  0.177570  Uiso  0.025330
    O1  O2-  1.0000  0.879390  0.067650  0.177570  Uiso  0.025330
    O1  O2-  1.0000  0.067650  0.338230  0.177570  Uiso  0.025330
    O1  O2-  1.0000  0.338230  0.338230  0.177570  Uiso  0.025330
    O1  O2-  1.0000  0.608810  0.338230  0.177570  Uiso  0.025330
    O1  O2-  1.0000  0.879390  0.338230  0.177570  Uiso  0.025330
    O1  O2-  1.0000  0.067650  0.608810  0.177570  Uiso  0.025330
    O1  O2-  1.0000  0.338230  0.608810  0.177570  Uiso  0.025330
    O1  O2-  1.0000  0.608810  0.608810  0.177570  Uiso  0.025330
    O1  O2-  1.0000  0.879390  0.608810  0.177570  Uiso  0.025330
    O1  O2-  1.0000  0.067650  0.879390  0.177570  Uiso  0.025330
    O1  O2-  1.0000  0.338230  0.879390  0.177570  Uiso  0.025330
    O1  O2-  1.0000  0.608810  0.879390  0.177570  Uiso  0.025330
    O1  O2-  1.0000  0.879390  0.879390  0.177570  Uiso  0.025330
    O1  O2-  1.0000  0.067650  0.067650  0.211390  Uiso  0.025330
    O1  O2-  1.0000  0.338230  0.067650  0.211390  Uiso  0.025330
    O1  O2-  1.0000  0.608810  0.067650  0.211390  Uiso  0.025330
    O1  O2-  1.0000  0.879390  0.067650  0.211390  Uiso  0.025330
    O1  O2-  1.0000  0.067650  0.338230  0.211390  Uiso  0.025330
    O1  O2-  1.0000  0.338230  0.338230  0.211390  Uiso  0.025330
    O1  O2-  1.0000  0.608810  0.338230  0.211390  Uiso  0.025330
    O1  O2-  1.0000  0.879390  0.338230  0.211390  Uiso  0.025330
    O1  O2-  1.0000  0.067650  0.608810  0.211390  Uiso  0.025330
    O1  O2-  1.0000  0.338230  0.608810  0.211390  Uiso  0.025330
    O1  O2-  1.0000  0.608810  0.608810  0.211390  Uiso  0.025330
    O1  O2-  1.0000  0.879390  0.608810  0.211390  Uiso  0.025330
    O1  O2-  1.0000  0.067650  0.879390  0.211390  Uiso  0.025330
    O1  O2-  1.0000  0.338230  0.879390  0.211390  Uiso  0.025330
    O1  O2-  1.0000  0.608810  0.879390  0.211390  Uiso  0.025330
    O1  O2-  1.0000  0.879390  0.879390  0.211390  Uiso  0.025330
    O1  O2-  1.0000  0.067650  0.067650  0.245210  Uiso  0.025330
    O1  O2-  1.0000  0.338230  0.067650  0.245210  Uiso  0.025330
    O1  O2-  1.0000  0.608810  0.067650  0.245210  Uiso  0.025330
    O1  O2-  1.0000  0.879390  0.067650  0.245210  Uiso  0.025330
    O1  O2-  1.0000  0.067650  0.338230  0.245210  Uiso  0.025330
    O1  O2-  1.0000  0.338230  0.338230  0.245210  Uiso  0.025330
    O1  O2-  1.0000  0.608810  0.338230  0.245210  Uiso  0.025330
    O1  O2-  1.0000  0.879390  0.338230  0.245210  Uiso  0.025330
    O1  O2-  1.0000  0.067650  0.608810  0.245210  Uiso  0.025330
    O1  O2-  1.0000  0.338230  0.608810  0.245210  Uiso  0.025330
    O1  O2-  1.0000  0.608810  0.608810  0.245210  Uiso  0.025330
    O1  O2-  1.0000  0.879390  0.608810  0.245210  Uiso  0.025330
    O1  O2-  1.0000  0.067650  0.879390  0.245210  Uiso  0.025330
    O1  O2-  1.0000  0.338230  0.879390  0.245210  Uiso  0.025330
    O1  O2-  1.0000  0.608810  0.879390  0.245210  Uiso  0.025330
    O1  O2-  1.0000  0.879390  0.879390  0.245210  Uiso  0.025330
    O1  O2-  1.0000  0.067650  0.067650  0.279040  Uiso  0.025330
    O1  O2-  1.0000  0.338230  0.067650  0.279040  Uiso  0.025330
    O1  O2-  1.0000  0.608810  0.067650  0.279040  Uiso  0.025330
    O1  O2-  1.0000  0.879390  0.067650  0.279040  Uiso  0.025330
    O1  O2-  1.0000  0.067650  0.338230  0.279040  Uiso  0.025330
    O1  O2-  1.0000  0.338230  0.338230  0.279040  Uiso  0.025330
    O1  O2-  1.0000  0.608810  0.338230  0.279040  Uiso  0.025330
    O1  O2-  1.0000  0.879390  0.338230  0.279040  Uiso  0.025330
    O1  O2-  1.0000  0.067650  0.608810  0.279040  Uiso  0.025330
    O1  O2-  1.0000  0.338230  0.608810  0.279040  Uiso  0.025330
    O1  O2-  1.0000  0.608810  0.608810  0.279040  Uiso  0.025330
    O1  O2-  1.0000  0.879390  0.608810  0.279040  Uiso  0.025330
    O1  O2-  1.0000  0.067650  0.879390  0.279040  Uiso  0.025330
    O1  O2-  1.0000  0.338230  0.879390  0.279040  Uiso  0.025330
    O1  O2-  1.0000  0.608810  0.879390  0.279040  Uiso  0.025330
    O1  O2-  1.0000  0.879390  0.879390  0.279040  Uiso  0.025330
    O1  O2-  1.0000  0.067650  0.067650  0.312860  Uiso  0.025330
    O1  O2-  1.0000  0.338230  0.067650  0.312860  Uiso  0.025330
    O1  O2-  1.0000  0.608810  0.067650  0.312860  Uiso  0.025330
    O1  O2-  1.0000  0.879390  0.067650  0.312860  Uiso  0.025330
    O1  O2-  1.0000  0.067650  0.338230  0.312860  Uiso  0.025330
    O1  O2-  1.0000  0.338230  0.338230  0.312860  Uiso  0.025330
    O1  O2-  1.0000  0.608810  0.338230  0.312860  Uiso  0.025330
    O1  O2-  1.0000  0.879390  0.338230  0.312860  Uiso  0.025330
    O1  O2-  1.0000  0.067650  0.608810  0.312860  Uiso  0.025330
    O1  O2-  1.0000  0.338230  0.608810  0.312860  Uiso  0.025330
    O1  O2-  1.0000  0.608810  0.608810  0.312860  Uiso  0.025330
    O1  O2-  1.0000  0.879390  0.608810  0.312860  Uiso  0.025330
    O1  O2-  1.0000  0.067650  0.879390  0.312860  Uiso  0.025330
    O1  O2-  1.0000  0.338230  0.879390  0.312860  Uiso  0.025330
    O1  O2-  1.0000  0.608810  0.879390  0.312860  Uiso  0.025330
    O1  O2-  1.0000  0.879390  0.879390  0.312860  Uiso  0.025330
    O1  O2-  1.0000  0.067650  0.067650  0.346680  Uiso  0.025330
    O1  O2-  1.0000  0.338230  0.067650  0.346680  Uiso  0.025330
    O1  O2-  1.0000  0.608810  0.067650  0.346680  Uiso  0.025330
    O1  O2-  1.0000  0.879390  0.067650  0.346680  Uiso  0.025330
    O1  O2-  1.0000  0.067650  0.338230  0.346680  Uiso  0.025330
    O1  O2-  1.0000  0.338230  0.338230  0.346680  Uiso  0.025330
    O1  O2-  1.0000  0.608810  0.338230  0.346680  Uiso  0.025330
    O1  O2-  1.0000  0.879390  0.338230  0.346680  Uiso  0.025330
    O1  O2-  1.0000  0.067650  0.608810  0.346680  Uiso  0.025330
    O1  O2-  1.0000  0.338230  0.608810  0.346680  Uiso  0.025330
    O1  O2-  1.0000  0.608810  0.608810  0.346680  Uiso  0.025330
    O1  O2-  1.0000  0.879390  0.608810  0.346680  Uiso  0.025330
    O1  O2-  1.0000  0.067650  0.879390  0.346680  Uiso  0.025330
    O1  O2-  1.0000  0.338230  0.879390  0.346680  Uiso  0.025330
    O1  O2-  1.0000  0.608810  0.879390  0.346680  Uiso  0.025330
    O1  O2-  1.0000  0.879390  0.879390  0.346680  Uiso  0.025330
    O1  O2-  1.0000  0.067650  0.067650  0.380500  Uiso  0.025330
    O1  O2-  1.0000  0.338230  0.067650  0.380500  Uiso  0.025330
    O1  O2-  1.0000  0.608810  0.067650  0.380500  Uiso  0.025330
    O1  O2-  1.0000  0.879390  0.067650  0.380500  Uiso  0.025330
    O1  O2-  1.0000  0.067650  0.338230  0.380500  Uiso  0.025330
    O1  O2-  1.0000  0.338230  0.338230  0.380500  Uiso  0.025330
    O1  O2-  1.0000  0.608810  0.338230  0.380500  Uiso  0.025330
    O1  O2-  1.0000  0.879390  0.338230  0.380500  Uiso  0.025330
    O1  O2-  1.0000  0.067650  0.608810  0.380500  Uiso  0.025330
    O1  O2-  1.0000  0.338230  0.608810  0.380500  Uiso  0.025330
    O1  O2-  1.0000  0.608810  0.608810  0.380500  Uiso  0.025330
    O1  O2-  1.0000  0.879390  0.608810  0.380500  Uiso  0.025330
    O1  O2-  1.0000  0.067650  0.879390  0.380500  Uiso  0.025330
    O1  O2-  1.0000  0.338230  0.879390  0.380500  Uiso  0.025330
    O1  O2-  1.0000  0.608810  0.879390  0.380500  Uiso  0.025330
    O1  O2-  1.0000  0.879390  0.879390  0.380500  Uiso  0.025330
    O1  O2-  1.0000  0.067650  0.067650  0.414330  Uiso  0.025330
    O1  O2-  1.0000  0.338230  0.067650  0.414330  Uiso  0.025330
    O1  O2-  1.0000  0.608810  0.067650  0.414330  Uiso  0.025330
    O1  O2-  1.0000  0.879390  0.067650  0.414330  Uiso  0.025330
    O1  O2-  1.0000  0.067650  0.338230  0.414330  Uiso  0.025330
    O1  O2-  1.0000  0.338230  0.338230  0.414330  Uiso  0.025330
    O1  O2-  1.0000  0.608810  0.338230  0.414330  Uiso  0.025330
    O1  O2-  1.0000  0.879390  0.338230  0.414330  Uiso  0.025330
    O1  O2-  1.0000  0.067650  0.608810  0.414330  Uiso  0.025330
    O1  O2-  1.0000  0.338230  0.608810  0.414330  Uiso  0.025330
    O1  O2-  1.0000  0.608810  0.608810  0.414330  Uiso  0.025330
    O1  O2-  1.0000  0.879390  0.608810  0.414330  Uiso  0.025330
    O1  O2-  1.0000  0.067650  0.879390  0.414330  Uiso  0.025330
    O1  O2-  1.0000  0.338230  0.879390  0.414330  Uiso  0.025330
    O1  O2-  1.0000  0.608810  0.879390  0.414330  Uiso  0.025330
    O1  O2-  1.0000  0.879390  0.879390  0.414330  Uiso  0.025330
    O1  O2-  1.0000  0.067650  0.067650  0.448150  Uiso  0.025330
    O1  O2-  1.0000  0.338230  0.067650  0.448150  Uiso  0.025330
    O1  O2-  1.0000  0.608810  0.067650  0.448150  Uiso  0.025330
    O1  O2-  1.0000  0.879390  0.067650  0.448150  Uiso  0.025330
    O1  O2-  1.0000  0.067650  0.338230  0.448150  Uiso  0.025330
    O1  O2-  1.0000  0.338230  0.338230  0.448150  Uiso  0.025330
    O1  O2-  1.0000  0.608810  0.338230  0.448150  Uiso  0.025330
    O1  O2-  1.0000  0.879390  0.338230  0.448150  Uiso  0.025330
    O1  O2-  1.0000  0.067650  0.608810  0.448150  Uiso  0.025330
    O1  O2-  1.0000  0.338230  0.608810  0.448150  Uiso  0.025330
    O1  O2-  1.0000  0.608810  0.608810  0.448150  Uiso  0.025330
    O1  O2-  1.0000  0.879390  0.608810  0.448150  Uiso  0.025330
    O1  O2-  1.0000  0.067650  0.879390  0.448150  Uiso  0.025330
    O1  O2-  1.0000  0.338230  0.879390  0.448150  Uiso  0.025330
    O1  O2-  1.0000  0.608810  0.879390  0.448150  Uiso  0.025330
    O1  O2-  1.0000  0.879390  0.879390  0.448150  Uiso  0.025330
    O1  O2-  1.0000  0.067650  0.067650  0.481970  Uiso  0.025330
    O1  O2-  1.0000  0.338230  0.067650  0.481970  Uiso  0.025330
    O1  O2-  1.0000  0.608810  0.067650  0.481970  Uiso  0.025330
    O1  O2-  1.0000  0.879390  0.067650  0.481970  Uiso  0.025330
    O1  O2-  1.0000  0.067650  0.338230  0.481970  Uiso  0.025330
    O1  O2-  1.0000  0.338230  0.338230  0.481970  Uiso  0.025330
    O1  O2-  1.0000  0.608810  0.338230  0.481970  Uiso  0.025330
    O1  O2-  1.0000  0.879390  0.338230  0.481970  Uiso  0.025330
    O1  O2-  1.0000  0.067650  0.608810  0.481970  Uiso  0.025330
    O1  O2-  1.0000  0.338230  0.608810  0.481970  Uiso  0.025330
    O1  O2-  1.0000  0.608810  0.608810  0.481970  Uiso  0.025330
    O1  O2-  1.0000  0.879390  0.608810  0.481970  Uiso  0.025330
    O1  O2-  1.0000  0.067650  0.879390  0.481970  Uiso  0.025330
    O1  O2-  1.0000  0.338230  0.879390  0.481970  Uiso  0.025330
    O1  O2-  1.0000  0.608810  0.879390  0.481970  Uiso  0.025330
    O1  O2-  1.0000  0.879390  0.879390  0.481970  Uiso  0.025330
    O1  O2-  1.0000  0.067650  0.067650  0.515790  Uiso  0.025330
    O1  O2-  1.0000  0.338230  0.067650  0.515790  Uiso  0.025330
    O1  O2-  1.0000  0.608810  0.067650  0.515790  Uiso  0.025330
    O1  O2-  1.0000  0.879390  0.067650  0.515790  Uiso  0.025330
    O1  O2-  1.0000  0.067650  0.338230  0.515790  Uiso  0.025330
    O1  O2-  1.0000  0.338230  0.338230  0.515790  Uiso  0.025330
    O1  O2-  1.0000  0.608810  0.338230  0.515790  Uiso  0.025330
    O1  O2-  1.0000  0.879390  0.338230  0.515790  Uiso  0.025330
    O1  O2-  1.0000  0.067650  0.608810  0.515790  Uiso  0.025330
    O1  O2-  1.0000  0.338230  0.608810  0.515790  Uiso  0.025330
    O1  O2-  1.0000  0.608810  0.608810  0.515790  Uiso  0.025330
    O1  O2-  1.0000  0.879390  0.608810  0.515790  Uiso  0.025330
    O1  O2-  1.0000  0.067650  0.879390  0.515790  Uiso  0.025330
    O1  O2-  1.0000  0.338230  0.879390  0.515790  Uiso  0.025330
    O1  O2-  1.0000  0.608810  0.879390  0.515790  Uiso  0.025330
    O1  O2-  1.0000  0.879390  0.879390  0.515790  Uiso  0.025330
    O1  O2-  1.0000  0.067650  0.067650  0.549620  Uiso  0.025330
    O1  O2-  1.0000  0.338230  0.067650  0.549620  Uiso  0.025330
    O1  O2-  1.0000  0.608810  0.067650  0.549620  Uiso  0.025330
    O1  O2-  1.0000  0.879390  0.067650  0.549620  Uiso  0.025330
    O1  O2-  1.0000  0.067650  0.338230  0.549620  Uiso  0.025330
    O1  O2-  1.0000  0.338230  0.338230  0.549620  Uiso  0.025330
    O1  O2-  1.0000  0.608810  0.338230  0.549620  Uiso  0.025330
    O1  O2-  1.0000  0.879390  0.338230  0.549620  Uiso  0.025330
    O1  O2-  1.0000  0.067650  0.608810  0.549620  Uiso  0.025330
    O1  O2-  1.0000  0.338230  0.608810  0.549620  Uiso  0.025330
    O1  O2-  1.0000  0.608810  0.608810  0.549620  Uiso  0.025330
    O1  O2-  1.0000  0.879390  0.608810  0.549620  Uiso  0.025330
    O1  O2-  1.0000  0.067650  0.879390  0.549620  Uiso  0.025330
    O1  O2-  1.0000  0.338230  0.879390  0.549620  Uiso  0.025330
    O1  O2-  1.0000  0.608810  0.879390  0.549620  Uiso  0.025330
    O1  O2-  1.0000  0.879390  0.879390  0.549620  Uiso  0.025330
    O1  O2-  1.0000  0.067650  0.067650  0.583440  Uiso  0.025330
    O1  O2-  1.0000  0.338230  0.067650  0.583440  Uiso  0.025330
    O1  O2-  1.0000  0.608810  0.067650  0.583440  Uiso  0.025330
    O1  O2-  1.0000  0.879390  0.067650  0.583440  Uiso  0.025330
    O1  O2-  1.0000  0.067650  0.338230  0.583440  Uiso  0.025330
    O1  O2-  1.0000  0.338230  0.338230  0.583440  Uiso  0.025330
    O1  O2-  1.0000  0.608810  0.338230  0.583440  Uiso  0.025330
    O1  O2-  1.0000  0.879390  0.338230  0.583440  Uiso  0.025330
    O1  O2-  1.0000  0.067650  0.608810  0.583440  Uiso  0.025330
    O1  O2-  1.0000  0.338230  0.608810  0.583440  Uiso  0.025330
    O1  O2-  1.0000  0.608810  0.608810  0.583440  Uiso  0.025330
    O1  O2-  1.0000  0.879390  0.608810  0.583440  Uiso  0.025330
    O1  O2-  1.0000  0.067650  0.879390  0.583440  Uiso  0.025330
    O1  O2-  1.0000  0.338230  0.879390  0.583440  Uiso  0.025330
    O1  O2-  1.0000  0.608810  0.879390  0.583440  Uiso  0.025330
    O1  O2-  1.0000  0.879390  0.879390  0.583440  Uiso  0.025330
    O1  O2-  1.0000  0.067650  0.067650  0.617260  Uiso  0.025330
    O1  O2-  1.0000  0.338230  0.067650  0.617260  Uiso  0.025330
    O1  O2-  1.0000  0.608810  0.067650  0.617260  Uiso  0.025330
    O1  O2-  1.0000  0.879390  0.067650  0.617260  Uiso  0.025330
    O1  O2-  1.0000  0.067650  0.338230  0.617260  Uiso  0.025330
    O1  O2-  1.0000  0.338230  0.338230  0.617260  Uiso  0.025330
    O1  O2-  1.0000  0.608810  0.338230  0.617260  Uiso  0.025330
    O1  O2-  1.0000  0.879390  0.338230  0.617260  Uiso  0.025330
    O1  O2-  1.0000  0.067650  0.608810  0.617260  Uiso  0.025330
    O1  O2-  1.0000  0.338230  0.608810  0.617260  Uiso  0.025330
    O1  O2-  1.0000  0.608810  0.608810  0.617260  Uiso  0.025330
    O1  O2-  1.0000  0.879390  0.608810  0.617260  Uiso  0.025330
    O1  O2-  1.0000  0.067650  0.879390  0.617260  Uiso  0.025330
    O1  O2-  1.0000  0.338230  0.879390  0.617260  Uiso  0.025330
    O1  O2-  1.0000  0.608810  0.879390  0.617260  Uiso  0.025330
    O1  O2-  1.0000  0.879390  0.879390  0.617260  Uiso  0.025330
    O1  O2-  1.0000  0.067650  0.067650  0.651080  Uiso  0.025330
    O1  O2-  1.0000  0.338230  0.067650  0.651080  Uiso  0.025330
    O1  O2-  1.0000  0.608810  0.067650  0.651080  Uiso  0.025330
    O1  O2-  1.0000  0.879390  0.067650  0.651080  Uiso  0.025330
    O1  O2-  1.0000  0.067650  0.338230  0.651080  Uiso  0.025330
    O1  O2-  1.0000  0.338230  0.338230  0.651080  Uiso  0.025330
    O1  O2-  1.0000  0.608810  0.338230  0.651080  Uiso  0.025330
    O1  O2-  1.0000  0.879390  0.338230  0.651080  Uiso  0.025330
    O1  O2-  1.0000  0.067650  0.608810  0.651080  Uiso  0.025330
    O1  O2-  1.0000  0.338230  0.608810  0.651080  Uiso  0.025330
    O1  O2-  1.0000  0.608810  0.608810  0.651080  Uiso  0.025330
    O1  O2-  1.0000  0.879390  0.608810  0.651080  Uiso  0.025330
    O1  O2-  1.0000  0.067650  0.879390  0.651080  Uiso  0.025330
    O1  O2-  1.0000  0.338230  0.879390  0.651080  Uiso  0.025330
    O1  O2-  1.0000  0.608810  0.879390  0.651080  Uiso  0.025330
    O1  O2-  1.0000  0.879390  0.879390  0.651080  Uiso  0.025330
    O1  O2-  1.0000  0.067650  0.067650  0.684910  Uiso  0.025330
    O1  O2-  1.0000  0.338230  0.067650  0.684910  Uiso  0.025330
    O1  O2-  1.0000  0.608810  0.067650  0.684910  Uiso  0.025330
    O1  O2-  1.0000  0.879390  0.067650  0.684910  Uiso  0.025330
    O1  O2-  1.0000  0.067650  0.338230  0.684910  Uiso  0.025330
    O1  O2-  1.0000  0.338230  0.338230  0.684910  Uiso  0.025330
    O1  O2-  1.0000  0.608810  0.338230  0.684910  Uiso  0.025330
    O1  O2-  1.0000  0.879390  0.338230  0.684910  Uiso  0.025330
    O1  O2-  1.0000  0.067650  0.608810  0.684910  Uiso  0.025330
    O1  O2-  1.0000  0.338230  0.608810  0.684910  Uiso  0.025330
    O1  O2-  1.0000  0.608810  0.608810  0.684910  Uiso  0.025330
    O1  O2-  1.0000  0.879390  0.608810  0.684910  Uiso  0.025330
    O1  O2-  1.0000  0.067650  0.879390  0.684910  Uiso  0.025330
    O1  O2-  1.0000  0.338230  0.879390  0.684910  Uiso  0.025330
    O1  O2-  1.0000  0.608810  0.879390  0.684910  Uiso  0.025330
    O1  O2-  1.0000  0.879390  0.879390  0.684910  Uiso  0.025330
    O1  O2-  1.0000  0.067650  0.067650  0.718730  Uiso  0.025330
    O1  O2-  1.0000  0.338230  0.067650  0.718730  Uiso  0.025330
    O1  O2-  1.0000  0.608810  0.067650  0.718730  Uiso  0.025330
    O1  O2-  1.0000  0.879390  0.067650  0.718730  Uiso  0.025330
    O1  O2-  1.0000  0.067650  0.338230  0.718730  Uiso  0.025330
    O1  O2-  1.0000  0.338230  0.338230  0.718730  Uiso  0.025330
    O1  O2-  1.0000  0.608810  0.338230  0.718730  Uiso  0.025330
    O1  O2-  1.0000  0.879390  0.338230  0.718730  Uiso  0.025330
    O1  O2-  1.0000  0.067650  0.608810  0.718730  Uiso  0.025330
    O1  O2-  1.0000  0.338230  0.608810  0.718730  Uiso  0.025330
    O1  O2-  1.0000  0.608810  0.608810  0.718730  Uiso  0.025330
    O1  O2-  1.0000  0.879390  0.608810  0.718730  Uiso  0.025330
    O1  O2-  1.0000  0.067650  0.879390  0.718730  Uiso  0.025330
    O1  O2-  1.0000  0.338230  0.879390  0.718730  Uiso  0.025330
    O1  O2-  1.0000  0.608810  0.879390  0.718730  Uiso  0.025330
    O1  O2-  1.0000  0.879390  0.879390  0.718730  Uiso  0.025330
    O1  O2-  1.0000  0.067650  0.067650  0.752550  Uiso  0.025330
    O1  O2-  1.0000  0.338230  0.067650  0.752550  Uiso  0.025330
    O1  O2-  1.0000  0.608810  0.067650  0.752550  Uiso  0.025330
    O1  O2-  1.0000  0.879390  0.067650  0.752550  Uiso  0.025330
    O1  O2-  1.0000  0.067650  0.338230  0.752550  Uiso  0.025330
    O1  O2-  1.0000  0.338230  0.338230  0.752550  Uiso  0.025330
    O1  O2-  1.0000  0.608810  0.338230  0.752550  Uiso  0.025330
    O1  O2-  1.0000  0.879390  0.338230  0.752550  Uiso  0.025330
    O1  O2-  1.0000  0.067650  0.608810  0.752550  Uiso  0.025330
    O1  O2-  1.0000  0.338230  0.608810  0.752550  Uiso  0.025330
    O1  O2-  1.0000  0.608810  0.608810  0.752550  Uiso  0.025330
    O1  O2-  1.0000  0.879390  0.608810  0.752550  Uiso  0.025330
    O1  O2-  1.0000  0.067650  0.879390  0.752550  Uiso  0.025330
    O1  O2-  1.0000  0.338230  0.879390  0.752550  Uiso  0.025330
    O1  O2-  1.0000  0.608810  0.879390  0.752550  Uiso  0.025330
    O1  O2-  1.0000  0.879390  0.879390  0.752550  Uiso  0.025330
    O1  O2-  1.0000  0.067650  0.067650  0.786370  Uiso  0.025330
    O1  O2-  1.0000  0.338230  0.067650  0.786370  Uiso  0.025330
    O1  O2-  1.0000  0.608810  0.067650  0.786370  Uiso  0.025330
    O1  O2-  1.0000  0.879390  0.067650  0.786370  Uiso  0.025330
    O1  O2-  1.0000  0.067650  0.338230  0.786370  Uiso  0.025330
    O1  O2-  1.0000  0.338230  0.338230  0.786370  Uiso  0.025330
    O1  O2-  1.0000  0.608810  0.338230  0.786370  Uiso  0.025330
    O1  O2-  1.0000  0.879390  0.338230  0.786370  Uiso  0.025330
    O1  O2-  1.0000  0.067650  0.608810  0.786370  Uiso  0.025330
    O1  O2-  1.0000  0.338230  0.608810  0.786370  Uiso  0.025330
    O1  O2-  1.0000  0.608810  0.608810  0.786370  Uiso  0.025330
    O1  O2-  1.0000  0.879390  0.608810  0.786370  Uiso  0.025330
    O1  O2-  1.0000  0.067650  0.879390  0.786370  Uiso  0.025330
    O1  O2-  1.0000  0.338230  0.879390  0.786370  Uiso  0.025330
    O1  O2-  1.0000  0.608810  0.879390  0.786370  Uiso  0.025330
    O1  O2-  1.0000  0.879390  0.879390  0.786370  Uiso  0.025330
    O1  O2-  1.0000  0.067650  0.067650  0.820200  Uiso  0.025330
    O1  O2-  1.0000  0.338230  0.067650  0.820200  Uiso  0.025330
    O1  O2-  1.0000  0.608810  0.067650  0.820200  Uiso  0.025330
    O1  O2-  1.0000  0.879390  0.067650  0.820200  Uiso  0.025330
    O1  O2-  1.0000  0.067650  0.338230  0.820200  Uiso  0.025330
    O1  O2-  1.0000  0.338230  0.338230  0.820200  Uiso  0.025330
    O1  O2-  1.0000  0.608810  0.338230  0.820200  Uiso  0.025330
    O1  O2-  1.0000  0.879390  0.338230  0.820200  Uiso  0.025330
    O1  O2-  1.0000  0.067650  0.608810  0.820200  Uiso  0.025330
    O1  O2-  1.0000  0.338230  0.608810  0.820200  Uiso  0.025330
    O1  O2-  1.0000  0.608810  0.608810  0.820200  Uiso  0.025330
    O1  O2-  1.0000  0.879390  0.608810  0.820200  Uiso  0.025330
    O1  O2-  1.0000  0.067650  0.879390  0.820200  Uiso  0.025330
    O1  O2-  1.0000  0.338230  0.879390  0.820200  Uiso  0.025330
    O1  O2-  1.0000  0.608810  0.879390  0.820200  Uiso  0.025330
    O1  O2-  1.0000  0.879390  0.879390  0.820200  Uiso  0.025330
    O1  O2-  1.0000  0.067650  0.067650  0.854020  Uiso  0.025330
    O1  O2-  1.0000  0.338230  0.067650  0.854020  Uiso  0.025330
    O1  O2-  1.0000  0.608810  0.067650  0.854020  Uiso  0.025330
    O1  O2-  1.0000  0.879390  0.067650  0.854020  Uiso  0.025330
    O1  O2-  1.0000  0.067650  0.338230  0.854020  Uiso  0.025330
    O1  O2-  1.0000  0.338230  0.338230  0.854020  Uiso  0.025330
    O1  O2-  1.0000  0.608810  0.338230  0.854020  Uiso  0.025330
    O1  O2-  1.0000  0.879390  0.338230  0.854020  Uiso  0.025330
    O1  O2-  1.0000  0.067650  0.608810  0.854020  Uiso  0.025330
    O1  O2-  1.0000  0.338230  0.608810  0.854020  Uiso  0.025330
    O1  O2-  1.0000  0.608810  0.608810  0.854020  Uiso  0.025330
    O1  O2-  1.0000  0.879390  0.608810  0.854020  Uiso  0.025330
    O1  O2-  1.0000  0.067650  0.879390  0.854020  Uiso  0.025330
    O1  O2-  1.0000  0.338230  0.879390  0.854020  Uiso  0.025330
    O1  O2-  1.0000  0.608810  0.879390  0.854020  Uiso  0.025330
    O1  O2-  1.0000  0.879390  0.879390  0.854020  Uiso  0.025330
    O1  O2-  1.0000  0.067650  0.067650  0.887840  Uiso  0.025330
    O1  O2-  1.0000  0.338230  0.067650  0.887840  Uiso  0.025330
    O1  O2-  1.0000  0.608810  0.067650  0.887840  Uiso  0.025330
    O1  O2-  1.0000  0.879390  0.067650  0.887840  Uiso  0.025330
    O1  O2-  1.0000  0.067650  0.338230  0.887840  Uiso  0.025330
    O1  O2-  1.0000  0.338230  0.338230  0.887840  Uiso  0.025330
    O1  O2-  1.0000  0.608810  0.338230  0.887840  Uiso  0.025330
    O1  O2-  1.0000  0.879390  0.338230  0.887840  Uiso  0.025330
    O1  O2-  1.0000  0.067650  0.608810  0.887840  Uiso  0.025330
    O1  O2-  1.0000  0.338230  0.608810  0.887840  Uiso  0.025330
    O1  O2-  1.0000  0.608810  0.608810  0.887840  Uiso  0.025330
    O1  O2-  1.0000  0.879390  0.608810  0.887840  Uiso  0.025330
    O1  O2-  1.0000  0.067650  0.879390  0.887840  Uiso  0.025330
    O1  O2-  1.0000  0.338230  0.879390  0.887840  Uiso  0.025330
    O1  O2-  1.0000  0.608810  0.879390  0.887840  Uiso  0.025330
    O1  O2-  1.0000  0.879390  0.879390  0.887840  Uiso  0.025330
    O1  O2-  1.0000  0.067650  0.067650  0.921660  Uiso  0.025330
    O1  O2-  1.0000  0.338230  0.067650  0.921660  Uiso  0.025330
    O1  O2-  1.0000  0.608810  0.067650  0.921660  Uiso  0.025330
    O1  O2-  1.0000  0.879390  0.067650  0.921660  Uiso  0.025330
    O1  O2-  1.0000  0.067650  0.338230  0.921660  Uiso  0.025330
    O1  O2-  1.0000  0.338230  0.338230  0.921660  Uiso  0.025330
    O1  O2-  1.0000  0.608810  0.338230  0.921660  Uiso  0.025330
    O1  O2-  1.0000  0.879390  0.338230  0.921660  Uiso  0.025330
    O1  O2-  1.0000  0.067650  0.608810  0.921660  Uiso  0.025330
    O1  O2-  1.0000  0.338230  0.608810  0.921660  Uiso  0.025330
    O1  O2-  1.0000  0.608810  0.608810  0.921660  Uiso  0.025330
    O1  O2-  1.0000  0.879390  0.608810  0.921660  Uiso  0.025330
    O1  O2-  1.0000  0.067650  0.879390  0.921660  Uiso  0.025330
    O1  O2-  1.0000  0.338230  0.879390  0.921660  Uiso  0.025330
    O1  O2-  1.0000  0.608810  0.879390  0.921660  Uiso  0.025330
    O1  O2-  1.0000  0.879390  0.879390  0.921660  Uiso  0.025330
    O1  O2-  1.0000  0.067650  0.067650  0.955490  Uiso  0.025330
    O1  O2-  1.0000  0.338230  0.067650  0.955490  Uiso  0.025330
    O1  O2-  1.0000  0.608810  0.067650  0.955490  Uiso  0.025330
    O1  O2-  1.0000  0.879390  0.067650  0.955490  Uiso  0.025330
    O1  O2-  1.0000  0.067650  0.338230  0.955490  Uiso  0.025330
    O1  O2-  1.0000  0.338230  0.338230  0.955490  Uiso  0.025330
    O1  O2-  1.0000  0.608810  0.338230  0.955490  Uiso  0.025330
    O1  O2-  1.0000  0.879390  0.338230  0.955490  Uiso  0.025330
    O1  O2-  1.0000  0.067650  0.608810  0.955490  Uiso  0.025330
    O1  O2-  1.0000  0.338230  0.608810  0.955490  Uiso  0.025330
    O1  O2-  1.0000  0.608810  0.608810  0.955490  Uiso  0.025330
    O1  O2-  1.0000  0.879390  0.608810  0.955490  Uiso  0.025330
    O1  O2-  1.0000  0.067650  0.879390  0.955490  Uiso  0.025330
    O1  O2-  1.0000  0.338230  0.879390  0.955490  Uiso  0.025330
    O1  O2-  1.0000  0.608810  0.879390  0.955490  Uiso  0.025330
    O1  O2-  1.0000  0.879390  0.879390  0.955490  Uiso  0.025330
    O1  O2-  1.0000  0.067650  0.067650  0.989310  Uiso  0.025330
    O1  O2-  1.0000  0.338230  0.067650  0.989310  Uiso  0.025330
    O1  O2-  1.0000  0.608810  0.067650  0.989310  Uiso  0.025330
    O1  O2-  1.0000  0.879390  0.067650  0.989310  Uiso  0.025330
    O1  O2-  1.0000  0.067650  0.338230  0.989310  Uiso  0.025330
    O1  O2-  1.0000  0.338230  0.338230  0.989310  Uiso  0.025330
    O1  O2-  1.0000  0.608810  0.338230  0.989310  Uiso  0.025330
    O1  O2-  1.0000  0.879390  0.338230  0.989310  Uiso  0.025330
    O1  O2-  1.0000  0.067650  0.608810  0.989310  Uiso  0.025330
    O1  O2-  1.0000  0.338230  0.608810  0.989310  Uiso  0.025330
    O1  O2-  1.0000  0.608810  0.608810  0.989310  Uiso  0.025330
    O1  O2-  1.0000  0.879390  0.608810  0.989310  Uiso  0.025330
    O1  O2-  1.0000  0.067650  0.879390  0.989310  Uiso  0.025330
    O1  O2-  1.0000  0.338230  0.879390  0.989310  Uiso  0.025330
    O1  O2-  1.0000  0.608810  0.879390  0.989310  Uiso  0.025330
    O1  O2-  1.0000  0.879390  0.879390  0.989310  Uiso  0.025330
    O1  O2-  1.0000  0.067650  0.067650  0.025370  Uiso  0.025330
    O1  O2-  1.0000  0.338230  0.067650  0.025370  Uiso  0.025330
    O1  O2-  1.0000  0.608810  0.067650  0.025370  Uiso  0.025330
    O1  O2-  1.0000  0.879390  0.067650  0.025370  Uiso  0.025330
    O1  O2-  1.0000  0.067650  0.338230  0.025370  Uiso  0.025330
    O1  O2-  1.0000  0.338230  0.338230  0.025370  Uiso  0.025330
    O1  O2-  1.0000  0.608810  0.338230  0.025370  Uiso  0.025330
    O1  O2-  1.0000  0.879390  0.338230  0.025370  Uiso  0.025330
    O1  O2-  1.0000  0.067650  0.608810  0.025370  Uiso  0.025330
    O1  O2-  1.0000  0.338230  0.608810  0.025370  Uiso  0.025330
    O1  O2-  1.0000  0.608810  0.608810  0.025370  Uiso  0.025330
    O1  O2-  1.0000  0.879390  0.608810  0.025370  Uiso  0.025330
    O1  O2-  1.0000  0.067650  0.879390  0.025370  Uiso  0.025330
    O1  O2-  1.0000  0.338230  0.879390  0.025370  Uiso  0.025330
    O1  O2-  1.0000  0.608810  0.879390  0.025370  Uiso  0.025330
    O1  O2-  1.0000  0.879390  0.879390  0.025370  Uiso  0.025330
    O1  O2-  1.0000  0.067650  0.067650  0.059190  Uiso  0.025330
    O1  O2-  1.0000  0.338230  0.067650  0.059190  Uiso  0.025330
    O1  O2-  1.0000  0.608810  0.067650  0.059190  Uiso  0.025330
    O1  O2-  1.0000  0.879390  0.067650  0.059190  Uiso  0.025330
    O1  O2-  1.0000  0.067650  0.338230  0.059190  Uiso  0.025330
    O1  O2-  1.0000  0.338230  0.338230  0.059190  Uiso  0.025330
    O1  O2-  1.0000  0.608810  0.338230  0.059190  Uiso  0.025330
    O1  O2-  1.0000  0.879390  0.338230  0.059190  Uiso  0.025330
    O1  O2-  1.0000  0.067650  0.608810  0.059190  Uiso  0.025330
    O1  O2-  1.0000  0.338230  0.608810  0.059190  Uiso  0.025330
    O1  O2-  1.0000  0.608810  0.608810  0.059190  Uiso  0.025330
    O1  O2-  1.0000  0.879390  0.608810  0.059190  Uiso  0.025330
    O1  O2-  1.0000  0.067650  0.879390  0.059190  Uiso  0.025330
    O1  O2-  1.0000  0.338230  0.879390  0.059190  Uiso  0.025330
    O1  O2-  1.0000  0.608810  0.879390  0.059190  Uiso  0.025330
    O1  O2-  1.0000  0.879390  0.879390  0.059190  Uiso  0.025330
    O1  O2-  1.0000  0.067650  0.067650  0.093010  Uiso  0.025330
    O1  O2-  1.0000  0.338230  0.067650  0.093010  Uiso  0.025330
    O1  O2-  1.0000  0.608810  0.067650  0.093010  Uiso  0.025330
    O1  O2-  1.0000  0.879390  0.067650  0.093010  Uiso  0.025330
    O1  O2-  1.0000  0.067650  0.338230  0.093010  Uiso  0.025330
    O1  O2-  1.0000  0.338230  0.338230  0.093010  Uiso  0.025330
    O1  O2-  1.0000  0.608810  0.338230  0.093010  Uiso  0.025330
    O1  O2-  1.0000  0.879390  0.338230  0.093010  Uiso  0.025330
    O1  O2-  1.0000  0.067650  0.608810  0.093010  Uiso  0.025330
    O1  O2-  1.0000  0.338230  0.608810  0.093010  Uiso  0.025330
    O1  O2-  1.0000  0.608810  0.608810  0.093010  Uiso  0.025330
    O1  O2-  1.0000  0.879390  0.608810  0.093010  Uiso  0.025330
    O1  O2-  1.0000  0.067650  0.879390  0.093010  Uiso  0.025330
    O1  O2-  1.0000  0.338230  0.879390  0.093010  Uiso  0.025330
    O1  O2-  1.0000  0.608810  0.879390  0.093010  Uiso  0.025330
    O1  O2-  1.0000  0.879390  0.879390  0.093010  Uiso  0.025330
    O1  O2-  1.0000  0.067650  0.067650  0.126830  Uiso  0.025330
    O1  O2-  1.0000  0.338230  0.067650  0.126830  Uiso  0.025330
    O1  O2-  1.0000  0.608810  0.067650  0.126830  Uiso  0.025330
    O1  O2-  1.0000  0.879390  0.067650  0.126830  Uiso  0.025330
    O1  O2-  1.0000  0.067650  0.338230  0.126830  Uiso  0.025330
    O1  O2-  1.0000  0.338230  0.338230  0.126830  Uiso  0.025330
    O1  O2-  1.0000  0.608810  0.338230  0.126830  Uiso  0.025330
    O1  O2-  1.0000  0.879390  0.338230  0.126830  Uiso  0.025330
    O1  O2-  1.0000  0.067650  0.608810  0.126830  Uiso  0.025330
    O1  O2-  1.0000  0.338230  0.608810  0.126830  Uiso  0.025330
    O1  O2-  1.0000  0.608810  0.608810  0.126830  Uiso  0.025330
    O1  O2-  1.0000  0.879390  0.608810  0.126830  Uiso  0.025330
    O1  O2-  1.0000  0.067650  0.879390  0.126830  Uiso  0.025330
    O1  O2-  1.0000  0.338230  0.879390  0.126830  Uiso  0.025330
    O1  O2-  1.0000  0.608810  0.879390  0.126830  Uiso  0.025330
    O1  O2-  1.0000  0.879390  0.879390  0.126830  Uiso  0.025330
    O1  O2-  1.0000  0.067650  0.067650  0.160660  Uiso  0.025330
    O1  O2-  1.0000  0.338230  0.067650  0.160660  Uiso  0.025330
    O1  O2-  1.0000  0.608810  0.067650  0.160660  Uiso  0.025330
    O1  O2-  1.0000  0.879390  0.067650  0.160660  Uiso  0.025330
    O1  O2-  1.0000  0.067650  0.338230  0.160660  Uiso  0.025330
    O1  O2-  1.0000  0.338230  0.338230  0.160660  Uiso  0.025330
    O1  O2-  1.0000  0.608810  0.338230  0.160660  Uiso  0.025330
    O1  O2-  1.0000  0.879390  0.338230  0.160660  Uiso  0.025330
    O1  O2-  1.0000  0.067650  0.608810  0.160660  Uiso  0.025330
    O1  O2-  1.0000  0.338230  0.608810  0.160660  Uiso  0.025330
    O1  O2-  1.0000  0.608810  0.608810  0.160660  Uiso  0.025330
    O1  O2-  1.0000  0.879390  0.608810  0.160660  Uiso  0.025330
    O1  O2-  1.0000  0.067650  0.879390  0.160660  Uiso  0.025330
    O1  O2-  1.0000  0.338230  0.879390  0.160660  Uiso  0.025330
    O1  O2-  1.0000  0.608810  0.879390  0.160660  Uiso  0.025330
    O1  O2-  1.0000  0.879390  0.879390  0.160660  Uiso  0.025330
    O1  O2-  1.0000  0.067650  0.067650  0.194480  Uiso  0.025330
    O1  O2-  1.0000  0.338230  0.067650  0.194480  Uiso  0.025330
    O1  O2-  1.0000  0.608810  0.067650  0.194480  Uiso  0.025330
    O1  O2-  1.0000  0.879390  0.067650  0.194480  Uiso  0.025330
    O1  O2-  1.0000  0.067650  0.338230  0.194480  Uiso  0.025330
    O1  O2-  1.0000  0.338230  0.338230  0.194480  Uiso  0.025330
    O1  O2-  1.0000  0.608810  0.338230  0.194480  Uiso  0.025330
    O1  O2-  1.0000  0.879390  0.338230  0.194480  Uiso  0.025330
    O1  O2-  1.0000  0.067650  0.608810  0.194480  Uiso  0.025330
    O1  O2-  1.0000  0.338230  0.608810  0.194480  Uiso  0.025330
    O1  O2-  1.0000  0.608810  0.608810  0.194480  Uiso  0.025330
    O1  O2-  1.0000  0.879390  0.608810  0.194480  Uiso  0.025330
    O1  O2-  1.0000  0.067650  0.879390  0.194480  Uiso  0.025330
    O1  O2-  1.0000  0.338230  0.879390  0.194480  Uiso  0.025330
    O1  O2-  1.0000  0.608810  0.879390  0.194480  Uiso  0.025330
    O1  O2-  1.0000  0.879390  0.879390  0.194480  Uiso  0.025330
    O1  O2-  1.0000  0.067650  0.067650  0.228300  Uiso  0.025330
    O1  O2-  1.0000  0.338230  0.067650  0.228300  Uiso  0.025330
    O1  O2-  1.0000  0.608810  0.067650  0.228300  Uiso  0.025330
    O1  O2-  1.0000  0.879390  0.067650  0.228300  Uiso  0.025330
    O1  O2-  1.0000  0.067650  0.338230  0.228300  Uiso  0.025330
    O1  O2-  1.0000  0.338230  0.338230  0.228300  Uiso  0.025330
    O1  O2-  1.0000  0.608810  0.338230  0.228300  Uiso  0.025330
    O1  O2-  1.0000  0.879390  0.338230  0.228300  Uiso  0.025330
    O1  O2-  1.0000  0.067650  0.608810  0.228300  Uiso  0.025330
    O1  O2-  1.0000  0.338230  0.608810  0.228300  Uiso  0.025330
    O1  O2-  1.0000  0.608810  0.608810  0.228300  Uiso  0.025330
    O1  O2-  1.0000  0.879390  0.608810  0.228300  Uiso  0.025330
    O1  O2-  1.0000  0.067650  0.879390  0.228300  Uiso  0.025330
    O1  O2-  1.0000  0.338230  0.879390  0.228300  Uiso  0.025330
    O1  O2-  1.0000  0.608810  0.879390  0.228300  Uiso  0.025330
    O1  O2-  1.0000  0.879390  0.879390  0.228300  Uiso  0.025330
    O1  O2-  1.0000  0.067650  0.067650  0.262120  Uiso  0.025330
    O1  O2-  1.0000  0.338230  0.067650  0.262120  Uiso  0.025330
    O1  O2-  1.0000  0.608810  0.067650  0.262120  Uiso  0.025330
    O1  O2-  1.0000  0.879390  0.067650  0.262120  Uiso  0.025330
    O1  O2-  1.0000  0.067650  0.338230  0.262120  Uiso  0.025330
    O1  O2-  1.0000  0.338230  0.338230  0.262120  Uiso  0.025330
    O1  O2-  1.0000  0.608810  0.338230  0.262120  Uiso  0.025330
    O1  O2-  1.0000  0.879390  0.338230  0.262120  Uiso  0.025330
    O1  O2-  1.0000  0.067650  0.608810  0.262120  Uiso  0.025330
    O1  O2-  1.0000  0.338230  0.608810  0.262120  Uiso  0.025330
    O1  O2-  1.0000  0.608810  0.608810  0.262120  Uiso  0.025330
    O1  O2-  1.0000  0.879390  0.608810  0.262120  Uiso  0.025330
    O1  O2-  1.0000  0.067650  0.879390  0.262120  Uiso  0.025330
    O1  O2-  1.0000  0.338230  0.879390  0.262120  Uiso  0.025330
    O1  O2-  1.0000  0.608810  0.879390  0.262120  Uiso  0.025330
    O1  O2-  1.0000  0.879390  0.879390  0.262120  Uiso  0.025330
    O1  O2-  1.0000  0.067650  0.067650  0.295950  Uiso  0.025330
    O1  O2-  1.0000  0.338230  0.067650  0.295950  Uiso  0.025330
    O1  O2-  1.0000  0.608810  0.067650  0.295950  Uiso  0.025330
    O1  O2-  1.0000  0.879390  0.067650  0.295950  Uiso  0.025330
    O1  O2-  1.0000  0.067650  0.338230  0.295950  Uiso  0.025330
    O1  O2-  1.0000  0.338230  0.338230  0.295950  Uiso  0.025330
    O1  O2-  1.0000  0.608810  0.338230  0.295950  Uiso  0.025330
    O1  O2-  1.0000  0.879390  0.338230  0.295950  Uiso  0.025330
    O1  O2-  1.0000  0.067650  0.608810  0.295950  Uiso  0.025330
    O1  O2-  1.0000  0.338230  0.608810  0.295950  Uiso  0.025330
    O1  O2-  1.0000  0.608810  0.608810  0.295950  Uiso  0.025330
    O1  O2-  1.0000  0.879390  0.608810  0.295950  Uiso  0.025330
    O1  O2-  1.0000  0.067650  0.879390  0.295950  Uiso  0.025330
    O1  O2-  1.0000  0.338230  0.879390  0.295950  Uiso  0.025330
    O1  O2-  1.0000  0.608810  0.879390  0.295950  Uiso  0.025330
    O1  O2-  1.0000  0.879390  0.879390  0.295950  Uiso  0.025330
    O1  O2-  1.0000  0.067650  0.067650  0.329770  Uiso  0.025330
    O1  O2-  1.0000  0.338230  0.067650  0.329770  Uiso  0.025330
    O1  O2-  1.0000  0.608810  0.067650  0.329770  Uiso  0.025330
    O1  O2-  1.0000  0.879390  0.067650  0.329770  Uiso  0.025330
    O1  O2-  1.0000  0.067650  0.338230  0.329770  Uiso  0.025330
    O1  O2-  1.0000  0.338230  0.338230  0.329770  Uiso  0.025330
    O1  O2-  1.0000  0.608810  0.338230  0.329770  Uiso  0.025330
    O1  O2-  1.0000  0.879390  0.338230  0.329770  Uiso  0.025330
    O1  O2-  1.0000  0.067650  0.608810  0.329770  Uiso  0.025330
    O1  O2-  1.0000  0.338230  0.608810  0.329770  Uiso  0.025330
    O1  O2-  1.0000  0.608810  0.608810  0.329770  Uiso  0.025330
    O1  O2-  1.0000  0.879390  0.608810  0.329770  Uiso  0.025330
    O1  O2-  1.0000  0.067650  0.879390  0.329770  Uiso  0.025330
    O1  O2-  1.0000  0.338230  0.879390  0.329770  Uiso  0.025330
    O1  O2-  1.0000  0.608810  0.879390  0.329770  Uiso  0.025330
    O1  O2-  1.0000  0.879390  0.879390  0.329770  Uiso  0.025330
    O1  O2-  1.0000  0.067650  0.067650  0.363590  Uiso  0.025330
    O1  O2-  1.0000  0.338230  0.067650  0.363590  Uiso  0.025330
    O1  O2-  1.0000  0.608810  0.067650  0.363590  Uiso  0.025330
    O1  O2-  1.0000  0.879390  0.067650  0.363590  Uiso  0.025330
    O1  O2-  1.0000  0.067650  0.338230  0.363590  Uiso  0.025330
    O1  O2-  1.0000  0.338230  0.338230  0.363590  Uiso  0.025330
    O1  O2-  1.0000  0.608810  0.338230  0.363590  Uiso  0.025330
    O1  O2-  1.0000  0.879390  0.338230  0.363590  Uiso  0.025330
    O1  O2-  1.0000  0.067650  0.608810  0.363590  Uiso  0.025330
    O1  O2-  1.0000  0.338230  0.608810  0.363590  Uiso  0.025330
    O1  O2-  1.0000  0.608810  0.608810  0.363590  Uiso  0.025330
    O1  O2-  1.0000  0.879390  0.608810  0.363590  Uiso  0.025330
    O1  O2-  1.0000  0.067650  0.879390  0.363590  Uiso  0.025330
    O1  O2-  1.0000  0.338230  0.879390  0.363590  Uiso  0.025330
    O1  O2-  1.0000  0.608810  0.879390  0.363590  Uiso  0.025330
    O1  O2-  1.0000  0.879390  0.879390  0.363590  Uiso  0.025330
    O1  O2-  1.0000  0.067650  0.067650  0.397410  Uiso  0.025330
    O1  O2-  1.0000  0.338230  0.067650  0.397410  Uiso  0.025330
    O1  O2-  1.0000  0.608810  0.067650  0.397410  Uiso  0.025330
    O1  O2-  1.0000  0.879390  0.067650  0.397410  Uiso  0.025330
    O1  O2-  1.0000  0.067650  0.338230  0.397410  Uiso  0.025330
    O1  O2-  1.0000  0.338230  0.338230  0.397410  Uiso  0.025330
    O1  O2-  1.0000  0.608810  0.338230  0.397410  Uiso  0.025330
    O1  O2-  1.0000  0.879390  0.338230  0.397410  Uiso  0.025330
    O1  O2-  1.0000  0.067650  0.608810  0.397410  Uiso  0.025330
    O1  O2-  1.0000  0.338230  0.608810  0.397410  Uiso  0.025330
    O1  O2-  1.0000  0.608810  0.608810  0.397410  Uiso  0.025330
    O1  O2-  1.0000  0.879390  0.608810  0.397410  Uiso  0.025330
    O1  O2-  1.0000  0.067650  0.879390  0.397410  Uiso  0.025330
    O1  O2-  1.0000  0.338230  0.879390  0.397410  Uiso  0.025330
    O1  O2-  1.0000  0.608810  0.879390  0.397410  Uiso  0.025330
    O1  O2-  1.0000  0.879390  0.879390  0.397410  Uiso  0.025330
    O1  O2-  1.0000  0.067650  0.067650  0.431240  Uiso  0.025330
    O1  O2-  1.0000  0.338230  0.067650  0.431240  Uiso  0.025330
    O1  O2-  1.0000  0.608810  0.067650  0.431240  Uiso  0.025330
    O1  O2-  1.0000  0.879390  0.067650  0.431240  Uiso  0.025330
    O1  O2-  1.0000  0.067650  0.338230  0.431240  Uiso  0.025330
    O1  O2-  1.0000  0.338230  0.338230  0.431240  Uiso  0.025330
    O1  O2-  1.0000  0.608810  0.338230  0.431240  Uiso  0.025330
    O1  O2-  1.0000  0.879390  0.338230  0.431240  Uiso  0.025330
    O1  O2-  1.0000  0.067650  0.608810  0.431240  Uiso  0.025330
    O1  O2-  1.0000  0.338230  0.608810  0.431240  Uiso  0.025330
    O1  O2-  1.0000  0.608810  0.608810  0.431240  Uiso  0.025330
    O1  O2-  1.0000  0.879390  0.608810  0.431240  Uiso  0.025330
    O1  O2-  1.0000  0.067650  0.879390  0.431240  Uiso  0.025330
    O1  O2-  1.0000  0.338230  0.879390  0.431240  Uiso  0.025330
    O1  O2-  1.0000  0.608810  0.879390  0.431240  Uiso  0.025330
    O1  O2-  1.0000  0.879390  0.879390  0.431240  Uiso  0.025330
    O1  O2-  1.0000  0.067650  0.067650  0.465060  Uiso  0.025330
    O1  O2-  1.0000  0.338230  0.067650  0.465060  Uiso  0.025330
    O1  O2-  1.0000  0.608810  0.067650  0.465060  Uiso  0.025330
    O1  O2-  1.0000  0.879390  0.067650  0.465060  Uiso  0.025330
    O1  O2-  1.0000  0.067650  0.338230  0.465060  Uiso  0.025330
    O1  O2-  1.0000  0.338230  0.338230  0.465060  Uiso  0.025330
    O1  O2-  1.0000  0.608810  0.338230  0.465060  Uiso  0.025330
    O1  O2-  1.0000  0.879390  0.338230  0.465060  Uiso  0.025330
    O1  O2-  1.0000  0.067650  0.608810  0.465060  Uiso  0.025330
    O1  O2-  1.0000  0.338230  0.608810  0.465060  Uiso  0.025330
    O1  O2-  1.0000  0.608810  0.608810  0.465060  Uiso  0.025330
    O1  O2-  1.0000  0.879390  0.608810  0.465060  Uiso  0.025330
    O1  O2-  1.0000  0.067650  0.879390  0.465060  Uiso  0.025330
    O1  O2-  1.0000  0.338230  0.879390  0.465060  Uiso  0.025330
    O1  O2-  1.0000  0.608810  0.879390  0.465060  Uiso  0.025330
    O1  O2-  1.0000  0.879390  0.879390  0.465060  Uiso  0.025330
    O1  O2-  1.0000  0.067650  0.067650  0.498880  Uiso  0.025330
    O1  O2-  1.0000  0.338230  0.067650  0.498880  Uiso  0.025330
    O1  O2-  1.0000  0.608810  0.067650  0.498880  Uiso  0.025330
    O1  O2-  1.0000  0.879390  0.067650  0.498880  Uiso  0.025330
    O1  O2-  1.0000  0.067650  0.338230  0.498880  Uiso  0.025330
    O1  O2-  1.0000  0.338230  0.338230  0.498880  Uiso  0.025330
    O1  O2-  1.0000  0.608810  0.338230  0.498880  Uiso  0.025330
    O1  O2-  1.0000  0.879390  0.338230  0.498880  Uiso  0.025330
    O1  O2-  1.0000  0.067650  0.608810  0.498880  Uiso  0.025330
    O1  O2-  1.0000  0.338230  0.608810  0.498880  Uiso  0.025330
    O1  O2-  1.0000  0.608810  0.608810  0.498880  Uiso  0.025330
    O1  O2-  1.0000  0.879390  0.608810  0.498880  Uiso  0.025330
    O1  O2-  1.0000  0.067650  0.879390  0.498880  Uiso  0.025330
    O1  O2-  1.0000  0.338230  0.879390  0.498880  Uiso  0.025330
    O1  O2-  1.0000  0.608810  0.879390  0.498880  Uiso  0.025330
    O1  O2-  1.0000  0.879390  0.879390  0.498880  Uiso  0.025330
    O1  O2-  1.0000  0.067650  0.067650  0.532700  Uiso  0.025330
    O1  O2-  1.0000  0.338230  0.067650  0.532700  Uiso  0.025330
    O1  O2-  1.0000  0.608810  0.067650  0.532700  Uiso  0.025330
    O1  O2-  1.0000  0.879390  0.067650  0.532700  Uiso  0.025330
    O1  O2-  1.0000  0.067650  0.338230  0.532700  Uiso  0.025330
    O1  O2-  1.0000  0.338230  0.338230  0.532700  Uiso  0.025330
    O1  O2-  1.0000  0.608810  0.338230  0.532700  Uiso  0.025330
    O1  O2-  1.0000  0.879390  0.338230  0.532700  Uiso  0.025330
    O1  O2-  1.0000  0.067650  0.608810  0.532700  Uiso  0.025330
    O1  O2-  1.0000  0.338230  0.608810  0.532700  Uiso  0.025330
    O1  O2-  1.0000  0.608810  0.608810  0.532700  Uiso  0.025330
    O1  O2-  1.0000  0.879390  0.608810  0.532700  Uiso  0.025330
    O1  O2-  1.0000  0.067650  0.879390  0.532700  Uiso  0.025330
    O1  O2-  1.0000  0.338230  0.879390  0.532700  Uiso  0.025330
    O1  O2-  1.0000  0.608810  0.879390  0.532700  Uiso  0.025330
    O1  O2-  1.0000  0.879390  0.879390  0.532700  Uiso  0.025330
    O1  O2-  1.0000  0.067650  0.067650  0.566530  Uiso  0.025330
    O1  O2-  1.0000  0.338230  0.067650  0.566530  Uiso  0.025330
    O1  O2-  1.0000  0.608810  0.067650  0.566530  Uiso  0.025330
    O1  O2-  1.0000  0.879390  0.067650  0.566530  Uiso  0.025330
    O1  O2-  1.0000  0.067650  0.338230  0.566530  Uiso  0.025330
    O1  O2-  1.0000  0.338230  0.338230  0.566530  Uiso  0.025330
    O1  O2-  1.0000  0.608810  0.338230  0.566530  Uiso  0.025330
    O1  O2-  1.0000  0.879390  0.338230  0.566530  Uiso  0.025330
    O1  O2-  1.0000  0.067650  0.608810  0.566530  Uiso  0.025330
    O1  O2-  1.0000  0.338230  0.608810  0.566530  Uiso  0.025330
    O1  O2-  1.0000  0.608810  0.608810  0.566530  Uiso  0.025330
    O1  O2-  1.0000  0.879390  0.608810  0.566530  Uiso  0.025330
    O1  O2-  1.0000  0.067650  0.879390  0.566530  Uiso  0.025330
    O1  O2-  1.0000  0.338230  0.879390  0.566530  Uiso  0.025330
    O1  O2-  1.0000  0.608810  0.879390  0.566530  Uiso  0.025330
    O1  O2-  1.0000  0.879390  0.879390  0.566530  Uiso  0.025330
    O1  O2-  1.0000  0.067650  0.067650  0.600350  Uiso  0.025330
    O1  O2-  1.0000  0.338230  0.067650  0.600350  Uiso  0.025330
    O1  O2-  1.0000  0.608810  0.067650  0.600350  Uiso  0.025330
    O1  O2-  1.0000  0.879390  0.067650  0.600350  Uiso  0.025330
    O1  O2-  1.0000  0.067650  0.338230  0.600350  Uiso  0.025330
    O1  O2-  1.0000  0.338230  0.338230  0.600350  Uiso  0.025330
    O1  O2-  1.0000  0.608810  0.338230  0.600350  Uiso  0.025330
    O1  O2-  1.0000  0.879390  0.338230  0.600350  Uiso  0.025330
    O1  O2-  1.0000  0.067650  0.608810  0.600350  Uiso  0.025330
    O1  O2-  1.0000  0.338230  0.608810  0.600350  Uiso  0.025330
    O1  O2-  1.0000  0.608810  0.608810  0.600350  Uiso  0.025330
    O1  O2-  1.0000  0.879390  0.608810  0.600350  Uiso  0.025330
    O1  O2-  1.0000  0.067650  0.879390  0.600350  Uiso  0.025330
    O1  O2-  1.0000  0.338230  0.879390  0.600350  Uiso  0.025330
    O1  O2-  1.0000  0.608810  0.879390  0.600350  Uiso  0.025330
    O1  O2-  1.0000  0.879390  0.879390  0.600350  Uiso  0.025330
    O1  O2-  1.0000  0.067650  0.067650  0.634170  Uiso  0.025330
    O1  O2-  1.0000  0.338230  0.067650  0.634170  Uiso  0.025330
    O1  O2-  1.0000  0.608810  0.067650  0.634170  Uiso  0.025330
    O1  O2-  1.0000  0.879390  0.067650  0.634170  Uiso  0.025330
    O1  O2-  1.0000  0.067650  0.338230  0.634170  Uiso  0.025330
    O1  O2-  1.0000  0.338230  0.338230  0.634170  Uiso  0.025330
    O1  O2-  1.0000  0.608810  0.338230  0.634170  Uiso  0.025330
    O1  O2-  1.0000  0.879390  0.338230  0.634170  Uiso  0.025330
    O1  O2-  1.0000  0.067650  0.608810  0.634170  Uiso  0.025330
    O1  O2-  1.0000  0.338230  0.608810  0.634170  Uiso  0.025330
    O1  O2-  1.0000  0.608810  0.608810  0.634170  Uiso  0.025330
    O1  O2-  1.0000  0.879390  0.608810  0.634170  Uiso  0.025330
    O1  O2-  1.0000  0.067650  0.879390  0.634170  Uiso  0.025330
    O1  O2-  1.0000  0.338230  0.879390  0.634170  Uiso  0.025330
    O1  O2-  1.0000  0.608810  0.879390  0.634170  Uiso  0.025330
    O1  O2-  1.0000  0.879390  0.879390  0.634170  Uiso  0.025330
    O1  O2-  1.0000  0.067650  0.067650  0.667990  Uiso  0.025330
    O1  O2-  1.0000  0.338230  0.067650  0.667990  Uiso  0.025330
    O1  O2-  1.0000  0.608810  0.067650  0.667990  Uiso  0.025330
    O1  O2-  1.0000  0.879390  0.067650  0.667990  Uiso  0.025330
    O1  O2-  1.0000  0.067650  0.338230  0.667990  Uiso  0.025330
    O1  O2-  1.0000  0.338230  0.338230  0.667990  Uiso  0.025330
    O1  O2-  1.0000  0.608810  0.338230  0.667990  Uiso  0.025330
    O1  O2-  1.0000  0.879390  0.338230  0.667990  Uiso  0.025330
    O1  O2-  1.0000  0.067650  0.608810  0.667990  Uiso  0.025330
    O1  O2-  1.0000  0.338230  0.608810  0.667990  Uiso  0.025330
    O1  O2-  1.0000  0.608810  0.608810  0.667990  Uiso  0.025330
    O1  O2-  1.0000  0.879390  0.608810  0.667990  Uiso  0.025330
    O1  O2-  1.0000  0.067650  0.879390  0.667990  Uiso  0.025330
    O1  O2-  1.0000  0.338230  0.879390  0.667990  Uiso  0.025330
    O1  O2-  1.0000  0.608810  0.879390  0.667990  Uiso  0.025330
    O1  O2-  1.0000  0.879390  0.879390  0.667990  Uiso  0.025330
    O1  O2-  1.0000  0.067650  0.067650  0.701820  Uiso  0.025330
    O1  O2-  1.0000  0.338230  0.067650  0.701820  Uiso  0.025330
    O1  O2-  1.0000  0.608810  0.067650  0.701820  Uiso  0.025330
    O1  O2-  1.0000  0.879390  0.067650  0.701820  Uiso  0.025330
    O1  O2-  1.0000  0.067650  0.338230  0.701820  Uiso  0.025330
    O1  O2-  1.0000  0.338230  0.338230  0.701820  Uiso  0.025330
    O1  O2-  1.0000  0.608810  0.338230  0.701820  Uiso  0.025330
    O1  O2-  1.0000  0.879390  0.338230  0.701820  Uiso  0.025330
    O1  O2-  1.0000  0.067650  0.608810  0.701820  Uiso  0.025330
    O1  O2-  1.0000  0.338230  0.608810  0.701820  Uiso  0.025330
    O1  O2-  1.0000  0.608810  0.608810  0.701820  Uiso  0.025330
    O1  O2-  1.0000  0.879390  0.608810  0.701820  Uiso  0.025330
    O1  O2-  1.0000  0.067650  0.879390  0.701820  Uiso  0.025330
    O1  O2-  1.0000  0.338230  0.879390  0.701820  Uiso  0.025330
    O1  O2-  1.0000  0.608810  0.879390  0.701820  Uiso  0.025330
    O1  O2-  1.0000  0.879390  0.879390  0.701820  Uiso  0.025330
    O1  O2-  1.0000  0.067650  0.067650  0.735640  Uiso  0.025330
    O1  O2-  1.0000  0.338230  0.067650  0.735640  Uiso  0.025330
    O1  O2-  1.0000  0.608810  0.067650  0.735640  Uiso  0.025330
    O1  O2-  1.0000  0.879390  0.067650  0.735640  Uiso  0.025330
    O1  O2-  1.0000  0.067650  0.338230  0.735640  Uiso  0.025330
    O1  O2-  1.0000  0.338230  0.338230  0.735640  Uiso  0.025330
    O1  O2-  1.0000  0.608810  0.338230  0.735640  Uiso  0.025330
    O1  O2-  1.0000  0.879390  0.338230  0.735640  Uiso  0.025330
    O1  O2-  1.0000  0.067650  0.608810  0.735640  Uiso  0.025330
    O1  O2-  1.0000  0.338230  0.608810  0.735640  Uiso  0.025330
    O1  O2-  1.0000  0.608810  0.608810  0.735640  Uiso  0.025330
    O1  O2-  1.0000  0.879390  0.608810  0.735640  Uiso  0.025330
    O1  O2-  1.0000  0.067650  0.879390  0.735640  Uiso  0.025330
    O1  O2-  1.0000  0.338230  0.879390  0.735640  Uiso  0.025330
    O1  O2-  1.0000  0.608810  0.879390  0.735640  Uiso  0.025330
    O1  O2-  1.0000  0.879390  0.879390  0.735640  Uiso  0.025330
    O1  O2-  1.0000  0.067650  0.067650  0.769460  Uiso  0.025330
    O1  O2-  1.0000  0.338230  0.067650  0.769460  Uiso  0.025330
    O1  O2-  1.0000  0.608810  0.067650  0.769460  Uiso  0.025330
    O1  O2-  1.0000  0.879390  0.067650  0.769460  Uiso  0.025330
    O1  O2-  1.0000  0.067650  0.338230  0.769460  Uiso  0.025330
    O1  O2-  1.0000  0.338230  0.338230  0.769460  Uiso  0.025330
    O1  O2-  1.0000  0.608810  0.338230  0.769460  Uiso  0.025330
    O1  O2-  1.0000  0.879390  0.338230  0.769460  Uiso  0.025330
    O1  O2-  1.0000  0.067650  0.608810  0.769460  Uiso  0.025330
    O1  O2-  1.0000  0.338230  0.608810  0.769460  Uiso  0.025330
    O1  O2-  1.0000  0.608810  0.608810  0.769460  Uiso  0.025330
    O1  O2-  1.0000  0.879390  0.608810  0.769460  Uiso  0.025330
    O1  O2-  1.0000  0.067650  0.879390  0.769460  Uiso  0.025330
    O1  O2-  1.0000  0.338230  0.879390  0.769460  Uiso  0.025330
    O1  O2-  1.0000  0.608810  0.879390  0.769460  Uiso  0.025330
    O1  O2-  1.0000  0.879390  0.879390  0.769460  Uiso  0.025330
    O1  O2-  1.0000  0.067650  0.067650  0.803280  Uiso  0.025330
    O1  O2-  1.0000  0.338230  0.067650  0.803280  Uiso  0.025330
    O1  O2-  1.0000  0.608810  0.067650  0.803280  Uiso  0.025330
    O1  O2-  1.0000  0.879390  0.067650  0.803280  Uiso  0.025330
    O1  O2-  1.0000  0.067650  0.338230  0.803280  Uiso  0.025330
    O1  O2-  1.0000  0.338230  0.338230  0.803280  Uiso  0.025330
    O1  O2-  1.0000  0.608810  0.338230  0.803280  Uiso  0.025330
    O1  O2-  1.0000  0.879390  0.338230  0.803280  Uiso  0.025330
    O1  O2-  1.0000  0.067650  0.608810  0.803280  Uiso  0.025330
    O1  O2-  1.0000  0.338230  0.608810  0.803280  Uiso  0.025330
    O1  O2-  1.0000  0.608810  0.608810  0.803280  Uiso  0.025330
    O1  O2-  1.0000  0.879390  0.608810  0.803280  Uiso  0.025330
    O1  O2-  1.0000  0.067650  0.879390  0.803280  Uiso  0.025330
    O1  O2-  1.0000  0.338230  0.879390  0.803280  Uiso  0.025330
    O1  O2-  1.0000  0.608810  0.879390  0.803280  Uiso  0.025330
    O1  O2-  1.0000  0.879390  0.879390  0.803280  Uiso  0.025330
    O1  O2-  1.0000  0.067650  0.067650  0.837110  Uiso  0.025330
    O1  O2-  1.0000  0.338230  0.067650  0.837110  Uiso  0.025330
    O1  O2-  1.0000  0.608810  0.067650  0.837110  Uiso  0.025330
    O1  O2-  1.0000  0.879390  0.067650  0.837110  Uiso  0.025330
    O1  O2-  1.0000  0.067650  0.338230  0.837110  Uiso  0.025330
    O1  O2-  1.0000  0.338230  0.338230  0.837110  Uiso  0.025330
    O1  O2-  1.0000  0.608810  0.338230  0.837110  Uiso  0.025330
    O1  O2-  1.0000  0.879390  0.338230  0.837110  Uiso  0.025330
    O1  O2-  1.0000  0.067650  0.608810  0.837110  Uiso  0.025330
    O1  O2-  1.0000  0.338230  0.608810  0.837110  Uiso  0.025330
    O1  O2-  1.0000  0.608810  0.608810  0.837110  Uiso  0.025330
    O1  O2-  1.0000  0.879390  0.608810  0.837110  Uiso  0.025330
    O1  O2-  1.0000  0.067650  0.879390  0.837110  Uiso  0.025330
    O1  O2-  1.0000  0.338230  0.879390  0.837110  Uiso  0.025330
    O1  O2-  1.0000  0.608810  0.879390  0.837110  Uiso  0.025330
    O1  O2-  1.0000  0.879390  0.879390  0.837110  Uiso  0.025330
    O1  O2-  1.0000  0.067650  0.067650  0.870930  Uiso  0.025330
    O1  O2-  1.0000  0.338230  0.067650  0.870930  Uiso  0.025330
    O1  O2-  1.0000  0.608810  0.067650  0.870930  Uiso  0.025330
    O1  O2-  1.0000  0.879390  0.067650  0.870930  Uiso  0.025330
    O1  O2-  1.0000  0.067650  0.338230  0.870930  Uiso  0.025330
    O1  O2-  1.0000  0.338230  0.338230  0.870930  Uiso  0.025330
    O1  O2-  1.0000  0.608810  0.338230  0.870930  Uiso  0.025330
    O1  O2-  1.0000  0.879390  0.338230  0.870930  Uiso  0.025330
    O1  O2-  1.0000  0.067650  0.608810  0.870930  Uiso  0.025330
    O1  O2-  1.0000  0.338230  0.608810  0.870930  Uiso  0.025330
    O1  O2-  1.0000  0.608810  0.608810  0.870930  Uiso  0.025330
    O1  O2-  1.0000  0.879390  0.608810  0.870930  Uiso  0.025330
    O1  O2-  1.0000  0.067650  0.879390  0.870930  Uiso  0.025330
    O1  O2-  1.0000  0.338230  0.879390  0.870930  Uiso  0.025330
    O1  O2-  1.0000  0.608810  0.879390  0.870930  Uiso  0.025330
    O1  O2-  1.0000  0.879390  0.879390  0.870930  Uiso  0.025330
    O1  O2-  1.0000  0.067650  0.067650  0.904750  Uiso  0.025330
    O1  O2-  1.0000  0.338230  0.067650  0.904750  Uiso  0.025330
    O1  O2-  1.0000  0.608810  0.067650  0.904750  Uiso  0.025330
    O1  O2-  1.0000  0.879390  0.067650  0.904750  Uiso  0.025330
    O1  O2-  1.0000  0.067650  0.338230  0.904750  Uiso  0.025330
    O1  O2-  1.0000  0.338230  0.338230  0.904750  Uiso  0.025330
    O1  O2-  1.0000  0.608810  0.338230  0.904750  Uiso  0.025330
    O1  O2-  1.0000  0.879390  0.338230  0.904750  Uiso  0.025330
    O1  O2-  1.0000  0.067650  0.608810  0.904750  Uiso  0.025330
    O1  O2-  1.0000  0.338230  0.608810  0.904750  Uiso  0.025330
    O1  O2-  1.0000  0.608810  0.608810  0.904750  Uiso  0.025330
    O1  O2-  1.0000  0.879390  0.608810  0.904750  Uiso  0.025330
    O1  O2-  1.0000  0.067650  0.879390  0.904750  Uiso  0.025330
    O1  O2-  1.0000  0.338230  0.879390  0.904750  Uiso  0.025330
    O1  O2-  1.0000  0.608810  0.879390  0.904750  Uiso  0.025330
    O1  O2-  1.0000  0.879390  0.879390  0.904750  Uiso  0.025330
    O1  O2-  1.0000  0.067650  0.067650  0.938570  Uiso  0.025330
    O1  O2-  1.0000  0.338230  0.067650  0.938570  Uiso  0.025330
    O1  O2-  1.0000  0.608810  0.067650  0.938570  Uiso  0.025330
    O1  O2-  1.0000  0.879390  0.067650  0.938570  Uiso  0.025330
    O1  O2-  1.0000  0.067650  0.338230  0.938570  Uiso  0.025330
    O1  O2-  1.0000  0.338230  0.338230  0.938570  Uiso  0.025330
    O1  O2-  1.0000  0.608810  0.338230  0.938570  Uiso  0.025330
    O1  O2-  1.0000  0.879390  0.338230  0.938570  Uiso  0.025330
    O1  O2-  1.0000  0.067650  0.608810  0.938570  Uiso  0.025330
    O1  O2-  1.0000  0.338230  0.608810  0.938570  Uiso  0.025330
    O1  O2-  1.0000  0.608810  0.608810  0.938570  Uiso  0.025330
    O1  O2-  1.0000  0.879390  0.608810  0.938570  Uiso  0.025330
    O1  O2-  1.0000  0.067650  0.879390  0.938570  Uiso  0.025330
    O1  O2-  1.0000  0.338230  0.879390  0.938570  Uiso  0.025330
    O1  O2-  1.0000  0.608810  0.879390  0.938570  Uiso  0.025330
    O1  O2-  1.0000  0.879390  0.879390  0.938570  Uiso  0.025330
    O1  O2-  1.0000  0.067650  0.067650  0.972400  Uiso  0.025330
    O1  O2-  1.0000  0.338230  0.067650  0.972400  Uiso  0.025330
    O1  O2-  1.0000  0.608810  0.067650  0.972400  Uiso  0.025330
    O1  O2-  1.0000  0.879390  0.067650  0.972400  Uiso  0.025330
    O1  O2-  1.0000  0.067650  0.338230  0.972400  Uiso  0.025330
    O1  O2-  1.0000  0.338230  0.338230  0.972400  Uiso  0.025330
    O1  O2-  1.0000  0.608810  0.338230  0.972400  Uiso  0.025330
    O1  O2-  1.0000  0.879390  0.338230  0.972400  Uiso  0.025330
    O1  O2-  1.0000  0.067650  0.608810  0.972400  Uiso  0.025330
    O1  O2-  1.0000  0.338230  0.608810  0.972400  Uiso  0.025330
    O1  O2-  1.0000  0.608810  0.608810  0.972400  Uiso  0.025330
    O1  O2-  1.0000  0.879390  0.608810  0.972400  Uiso  0.025330
    O1  O2-  1.0000  0.067650  0.879390  0.972400  Uiso  0.025330
    O1  O2-  1.0000  0.338230  0.879390  0.972400  Uiso  0.025330
    O1  O2-  1.0000  0.608810  0.879390  0.972400  Uiso  0.025330
    O1  O2-  1.0000  0.879390  0.879390  0.972400  Uiso  0.025330
    O1  O2-  1.0000  0.067650  0.202940  0.025370  Uiso  0.025330
    O1  O2-  1.0000  0.338230  0.202940  0.025370  Uiso  0.025330
    O1  O2-  1.0000  0.608810  0.202940  0.025370  Uiso  0.025330
    O1  O2-  1.0000  0.879390  0.202940  0.025370  Uiso  0.025330
    O1  O2-  1.0000  0.067650  0.473520  0.025370  Uiso  0.025330
    O1  O2-  1.0000  0.338230  0.473520  0.025370  Uiso  0.025330
    O1  O2-  1.0000  0.608810  0.473520  0.025370  Uiso  0.025330
    O1  O2-  1.0000  0.879390  0.473520  0.025370  Uiso  0.025330
    O1  O2-  1.0000  0.067650  0.744100  0.025370  Uiso  0.025330
    O1  O2-  1.0000  0.338230  0.744100  0.025370  Uiso  0.025330
    O1  O2-  1.0000  0.608810  0.744100  0.025370  Uiso  0.025330
    O1  O2-  1.0000  0.879390  0.744100  0.025370  Uiso  0.025330
    O1  O2-  1.0000  0.067650  0.202940  0.059190  Uiso  0.025330
    O1  O2-  1.0000  0.338230  0.202940  0.059190  Uiso  0.025330
    O1  O2-  1.0000  0.608810  0.202940  0.059190  Uiso  0.025330
    O1  O2-  1.0000  0.879390  0.202940  0.059190  Uiso  0.025330
    O1  O2-  1.0000  0.067650  0.473520  0.059190  Uiso  0.025330
    O1  O2-  1.0000  0.338230  0.473520  0.059190  Uiso  0.025330
    O1  O2-  1.0000  0.608810  0.473520  0.059190  Uiso  0.025330
    O1  O2-  1.0000  0.879390  0.473520  0.059190  Uiso  0.025330
    O1  O2-  1.0000  0.067650  0.744100  0.059190  Uiso  0.025330
    O1  O2-  1.0000  0.338230  0.744100  0.059190  Uiso  0.025330
    O1  O2-  1.0000  0.608810  0.744100  0.059190  Uiso  0.025330
    O1  O2-  1.0000  0.879390  0.744100  0.059190  Uiso  0.025330
    O1  O2-  1.0000  0.067650  0.202940  0.093010  Uiso  0.025330
    O1  O2-  1.0000  0.338230  0.202940  0.093010  Uiso  0.025330
    O1  O2-  1.0000  0.608810  0.202940  0.093010  Uiso  0.025330
    O1  O2-  1.0000  0.879390  0.202940  0.093010  Uiso  0.025330
    O1  O2-  1.0000  0.067650  0.473520  0.093010  Uiso  0.025330
    O1  O2-  1.0000  0.338230  0.473520  0.093010  Uiso  0.025330
    O1  O2-  1.0000  0.608810  0.473520  0.093010  Uiso  0.025330
    O1  O2-  1.0000  0.879390  0.473520  0.093010  Uiso  0.025330
    O1  O2-  1.0000  0.067650  0.744100  0.093010  Uiso  0.025330
    O1  O2-  1.0000  0.338230  0.744100  0.093010  Uiso  0.025330
    O1  O2-  1.0000  0.608810  0.744100  0.093010  Uiso  0.025330
    O1  O2-  1.0000  0.879390  0.744100  0.093010  Uiso  0.025330
    O1  O2-  1.0000  0.067650  0.202940  0.126830  Uiso  0.025330
    O1  O2-  1.0000  0.338230  0.202940  0.126830  Uiso  0.025330
    O1  O2-  1.0000  0.608810  0.202940  0.126830  Uiso  0.025330
    O1  O2-  1.0000  0.879390  0.202940  0.126830  Uiso  0.025330
    O1  O2-  1.0000  0.067650  0.473520  0.126830  Uiso  0.025330
    O1  O2-  1.0000  0.338230  0.473520  0.126830  Uiso  0.025330
    O1  O2-  1.0000  0.608810  0.473520  0.126830  Uiso  0.025330
    O1  O2-  1.0000  0.879390  0.473520  0.126830  Uiso  0.025330
    O1  O2-  1.0000  0.067650  0.744100  0.126830  Uiso  0.025330
    O1  O2-  1.0000  0.338230  0.744100  0.126830  Uiso  0.025330
    O1  O2-  1.0000  0.608810  0.744100  0.126830  Uiso  0.025330
    O1  O2-  1.0000  0.879390  0.744100  0.126830  Uiso  0.025330
    O1  O2-  1.0000  0.067650  0.202940  0.160660  Uiso  0.025330
    O1  O2-  1.0000  0.338230  0.202940  0.160660  Uiso  0.025330
    O1  O2-  1.0000  0.608810  0.202940  0.160660  Uiso  0.025330
    O1  O2-  1.0000  0.879390  0.202940  0.160660  Uiso  0.025330
    O1  O2-  1.0000  0.067650  0.473520  0.160660  Uiso  0.025330
    O1  O2-  1.0000  0.338230  0.473520  0.160660  Uiso  0.025330
    O1  O2-  1.0000  0.608810  0.473520  0.160660  Uiso  0.025330
    O1  O2-  1.0000  0.879390  0.473520  0.160660  Uiso  0.025330
    O1  O2-  1.0000  0.067650  0.744100  0.160660  Uiso  0.025330
    O1  O2-  1.0000  0.338230  0.744100  0.160660  Uiso  0.025330
    O1  O2-  1.0000  0.608810  0.744100  0.160660  Uiso  0.025330
    O1  O2-  1.0000  0.879390  0.744100  0.160660  Uiso  0.025330
    O1  O2-  1.0000  0.067650  0.202940  0.194480  Uiso  0.025330
    O1  O2-  1.0000  0.338230  0.202940  0.194480  Uiso  0.025330
    O1  O2-  1.0000  0.608810  0.202940  0.194480  Uiso  0.025330
    O1  O2-  1.0000  0.879390  0.202940  0.194480  Uiso  0.025330
    O1  O2-  1.0000  0.067650  0.473520  0.194480  Uiso  0.025330
    O1  O2-  1.0000  0.338230  0.473520  0.194480  Uiso  0.025330
    O1  O2-  1.0000  0.608810  0.473520  0.194480  Uiso  0.025330
    O1  O2-  1.0000  0.879390  0.473520  0.194480  Uiso  0.025330
    O1  O2-  1.0000  0.067650  0.744100  0.194480  Uiso  0.025330
    O1  O2-  1.0000  0.338230  0.744100  0.194480  Uiso  0.025330
    O1  O2-  1.0000  0.608810  0.744100  0.194480  Uiso  0.025330
    O1  O2-  1.0000  0.879390  0.744100  0.194480  Uiso  0.025330
    O1  O2-  1.0000  0.067650  0.202940  0.228300  Uiso  0.025330
    O1  O2-  1.0000  0.338230  0.202940  0.228300  Uiso  0.025330
    O1  O2-  1.0000  0.608810  0.202940  0.228300  Uiso  0.025330
    O1  O2-  1.0000  0.879390  0.202940  0.228300  Uiso  0.025330
    O1  O2-  1.0000  0.067650  0.473520  0.228300  Uiso  0.025330
    O1  O2-  1.0000  0.338230  0.473520  0.228300  Uiso  0.025330
    O1  O2-  1.0000  0.608810  0.473520  0.228300  Uiso  0.025330
    O1  O2-  1.0000  0.879390  0.473520  0.228300  Uiso  0.025330
    O1  O2-  1.0000  0.067650  0.744100  0.228300  Uiso  0.025330
    O1  O2-  1.0000  0.338230  0.744100  0.228300  Uiso  0.025330
    O1  O2-  1.0000  0.608810  0.744100  0.228300  Uiso  0.025330
    O1  O2-  1.0000  0.879390  0.744100  0.228300  Uiso  0.025330
    O1  O2-  1.0000  0.067650  0.202940  0.262120  Uiso  0.025330
    O1  O2-  1.0000  0.338230  0.202940  0.262120  Uiso  0.025330
    O1  O2-  1.0000  0.608810  0.202940  0.262120  Uiso  0.025330
    O1  O2-  1.0000  0.879390  0.202940  0.262120  Uiso  0.025330
    O1  O2-  1.0000  0.067650  0.473520  0.262120  Uiso  0.025330
    O1  O2-  1.0000  0.338230  0.473520  0.262120  Uiso  0.025330
    O1  O2-  1.0000  0.608810  0.473520  0.262120  Uiso  0.025330
    O1  O2-  1.0000  0.879390  0.473520  0.262120  Uiso  0.025330
    O1  O2-  1.0000  0.067650  0.744100  0.262120  Uiso  0.025330
    O1  O2-  1.0000  0.338230  0.744100  0.262120  Uiso  0.025330
    O1  O2-  1.0000  0.608810  0.744100  0.262120  Uiso  0.025330
    O1  O2-  1.0000  0.879390  0.744100  0.262120  Uiso  0.025330
    O1  O2-  1.0000  0.067650  0.202940  0.295950  Uiso  0.025330
    O1  O2-  1.0000  0.338230  0.202940  0.295950  Uiso  0.025330
    O1  O2-  1.0000  0.608810  0.202940  0.295950  Uiso  0.025330
    O1  O2-  1.0000  0.879390  0.202940  0.295950  Uiso  0.025330
    O1  O2-  1.0000  0.067650  0.473520  0.295950  Uiso  0.025330
    O1  O2-  1.0000  0.338230  0.473520  0.295950  Uiso  0.025330
    O1  O2-  1.0000  0.608810  0.473520  0.295950  Uiso  0.025330
    O1  O2-  1.0000  0.879390  0.473520  0.295950  Uiso  0.025330
    O1  O2-  1.0000  0.067650  0.744100  0.295950  Uiso  0.025330
    O1  O2-  1.0000  0.338230  0.744100  0.295950  Uiso  0.025330
    O1  O2-  1.0000  0.608810  0.744100  0.295950  Uiso  0.025330
    O1  O2-  1.0000  0.879390  0.744100  0.295950  Uiso  0.025330
    O1  O2-  1.0000  0.067650  0.202940  0.329770  Uiso  0.025330
    O1  O2-  1.0000  0.338230  0.202940  0.329770  Uiso  0.025330
    O1  O2-  1.0000  0.608810  0.202940  0.329770  Uiso  0.025330
    O1  O2-  1.0000  0.879390  0.202940  0.329770  Uiso  0.025330
    O1  O2-  1.0000  0.067650  0.473520  0.329770  Uiso  0.025330
    O1  O2-  1.0000  0.338230  0.473520  0.329770  Uiso  0.025330
    O1  O2-  1.0000  0.608810  0.473520  0.329770  Uiso  0.025330
    O1  O2-  1.0000  0.879390  0.473520  0.329770  Uiso  0.025330
    O1  O2-  1.0000  0.067650  0.744100  0.329770  Uiso  0.025330
    O1  O2-  1.0000  0.338230  0.744100  0.329770  Uiso  0.025330
    O1  O2-  1.0000  0.608810  0.744100  0.329770  Uiso  0.025330
    O1  O2-  1.0000  0.879390  0.744100  0.329770  Uiso  0.025330
    O1  O2-  1.0000  0.067650  0.202940  0.363590  Uiso  0.025330
    O1  O2-  1.0000  0.338230  0.202940  0.363590  Uiso  0.025330
    O1  O2-  1.0000  0.608810  0.202940  0.363590  Uiso  0.025330
    O1  O2-  1.0000  0.879390  0.202940  0.363590  Uiso  0.025330
    O1  O2-  1.0000  0.067650  0.473520  0.363590  Uiso  0.025330
    O1  O2-  1.0000  0.338230  0.473520  0.363590  Uiso  0.025330
    O1  O2-  1.0000  0.608810  0.473520  0.363590  Uiso  0.025330
    O1  O2-  1.0000  0.879390  0.473520  0.363590  Uiso  0.025330
    O1  O2-  1.0000  0.067650  0.744100  0.363590  Uiso  0.025330
    O1  O2-  1.0000  0.338230  0.744100  0.363590  Uiso  0.025330
    O1  O2-  1.0000  0.608810  0.744100  0.363590  Uiso  0.025330
    O1  O2-  1.0000  0.879390  0.744100  0.363590  Uiso  0.025330
    O1  O2-  1.0000  0.067650  0.202940  0.397410  Uiso  0.025330
    O1  O2-  1.0000  0.338230  0.202940  0.397410  Uiso  0.025330
    O1  O2-  1.0000  0.608810  0.202940  0.397410  Uiso  0.025330
    O1  O2-  1.0000  0.879390  0.202940  0.397410  Uiso  0.025330
    O1  O2-  1.0000  0.067650  0.473520  0.397410  Uiso  0.025330
    O1  O2-  1.0000  0.338230  0.473520  0.397410  Uiso  0.025330
    O1  O2-  1.0000  0.608810  0.473520  0.397410  Uiso  0.025330
    O1  O2-  1.0000  0.879390  0.473520  0.397410  Uiso  0.025330
    O1  O2-  1.0000  0.067650  0.744100  0.397410  Uiso  0.025330
    O1  O2-  1.0000  0.338230  0.744100  0.397410  Uiso  0.025330
    O1  O2-  1.0000  0.608810  0.744100  0.397410  Uiso  0.025330
    O1  O2-  1.0000  0.879390  0.744100  0.397410  Uiso  0.025330
    O1  O2-  1.0000  0.067650  0.202940  0.431240  Uiso  0.025330
    O1  O2-  1.0000  0.338230  0.202940  0.431240  Uiso  0.025330
    O1  O2-  1.0000  0.608810  0.202940  0.431240  Uiso  0.025330
    O1  O2-  1.0000  0.879390  0.202940  0.431240  Uiso  0.025330
    O1  O2-  1.0000  0.067650  0.473520  0.431240  Uiso  0.025330
    O1  O2-  1.0000  0.338230  0.473520  0.431240  Uiso  0.025330
    O1  O2-  1.0000  0.608810  0.473520  0.431240  Uiso  0.025330
    O1  O2-  1.0000  0.879390  0.473520  0.431240  Uiso  0.025330
    O1  O2-  1.0000  0.067650  0.744100  0.431240  Uiso  0.025330
    O1  O2-  1.0000  0.338230  0.744100  0.431240  Uiso  0.025330
    O1  O2-  1.0000  0.608810  0.744100  0.431240  Uiso  0.025330
    O1  O2-  1.0000  0.879390  0.744100  0.431240  Uiso  0.025330
    O1  O2-  1.0000  0.067650  0.202940  0.465060  Uiso  0.025330
    O1  O2-  1.0000  0.338230  0.202940  0.465060  Uiso  0.025330
    O1  O2-  1.0000  0.608810  0.202940  0.465060  Uiso  0.025330
    O1  O2-  1.0000  0.879390  0.202940  0.465060  Uiso  0.025330
    O1  O2-  1.0000  0.067650  0.473520  0.465060  Uiso  0.025330
    O1  O2-  1.0000  0.338230  0.473520  0.465060  Uiso  0.025330
    O1  O2-  1.0000  0.608810  0.473520  0.465060  Uiso  0.025330
    O1  O2-  1.0000  0.879390  0.473520  0.465060  Uiso  0.025330
    O1  O2-  1.0000  0.067650  0.744100  0.465060  Uiso  0.025330
    O1  O2-  1.0000  0.338230  0.744100  0.465060  Uiso  0.025330
    O1  O2-  1.0000  0.608810  0.744100  0.465060  Uiso  0.025330
    O1  O2-  1.0000  0.879390  0.744100  0.465060  Uiso  0.025330
    O1  O2-  1.0000  0.067650  0.202940  0.498880  Uiso  0.025330
    O1  O2-  1.0000  0.338230  0.202940  0.498880  Uiso  0.025330
    O1  O2-  1.0000  0.608810  0.202940  0.498880  Uiso  0.025330
    O1  O2-  1.0000  0.879390  0.202940  0.498880  Uiso  0.025330
    O1  O2-  1.0000  0.067650  0.473520  0.498880  Uiso  0.025330
    O1  O2-  1.0000  0.338230  0.473520  0.498880  Uiso  0.025330
    O1  O2-  1.0000  0.608810  0.473520  0.498880  Uiso  0.025330
    O1  O2-  1.0000  0.879390  0.473520  0.498880  Uiso  0.025330
    O1  O2-  1.0000  0.067650  0.744100  0.498880  Uiso  0.025330
    O1  O2-  1.0000  0.338230  0.744100  0.498880  Uiso  0.025330
    O1  O2-  1.0000  0.608810  0.744100  0.498880  Uiso  0.025330
    O1  O2-  1.0000  0.879390  0.744100  0.498880  Uiso  0.025330
    O1  O2-  1.0000  0.067650  0.202940  0.532700  Uiso  0.025330
    O1  O2-  1.0000  0.338230  0.202940  0.532700  Uiso  0.025330
    O1  O2-  1.0000  0.608810  0.202940  0.532700  Uiso  0.025330
    O1  O2-  1.0000  0.879390  0.202940  0.532700  Uiso  0.025330
    O1  O2-  1.0000  0.067650  0.473520  0.532700  Uiso  0.025330
    O1  O2-  1.0000  0.338230  0.473520  0.532700  Uiso  0.025330
    O1  O2-  1.0000  0.608810  0.473520  0.532700  Uiso  0.025330
    O1  O2-  1.0000  0.879390  0.473520  0.532700  Uiso  0.025330
    O1  O2-  1.0000  0.067650  0.744100  0.532700  Uiso  0.025330
    O1  O2-  1.0000  0.338230  0.744100  0.532700  Uiso  0.025330
    O1  O2-  1.0000  0.608810  0.744100  0.532700  Uiso  0.025330
    O1  O2-  1.0000  0.879390  0.744100  0.532700  Uiso  0.025330
    O1  O2-  1.0000  0.067650  0.202940  0.566530  Uiso  0.025330
    O1  O2-  1.0000  0.338230  0.202940  0.566530  Uiso  0.025330
    O1  O2-  1.0000  0.608810  0.202940  0.566530  Uiso  0.025330
    O1  O2-  1.0000  0.879390  0.202940  0.566530  Uiso  0.025330
    O1  O2-  1.0000  0.067650  0.473520  0.566530  Uiso  0.025330
    O1  O2-  1.0000  0.338230  0.473520  0.566530  Uiso  0.025330
    O1  O2-  1.0000  0.608810  0.473520  0.566530  Uiso  0.025330
    O1  O2-  1.0000  0.879390  0.473520  0.566530  Uiso  0.025330
    O1  O2-  1.0000  0.067650  0.744100  0.566530  Uiso  0.025330
    O1  O2-  1.0000  0.338230  0.744100  0.566530  Uiso  0.025330
    O1  O2-  1.0000  0.608810  0.744100  0.566530  Uiso  0.025330
    O1  O2-  1.0000  0.879390  0.744100  0.566530  Uiso  0.025330
    O1  O2-  1.0000  0.067650  0.202940  0.600350  Uiso  0.025330
    O1  O2-  1.0000  0.338230  0.202940  0.600350  Uiso  0.025330
    O1  O2-  1.0000  0.608810  0.202940  0.600350  Uiso  0.025330
    O1  O2-  1.0000  0.879390  0.202940  0.600350  Uiso  0.025330
    O1  O2-  1.0000  0.067650  0.473520  0.600350  Uiso  0.025330
    O1  O2-  1.0000  0.338230  0.473520  0.600350  Uiso  0.025330
    O1  O2-  1.0000  0.608810  0.473520  0.600350  Uiso  0.025330
    O1  O2-  1.0000  0.879390  0.473520  0.600350  Uiso  0.025330
    O1  O2-  1.0000  0.067650  0.744100  0.600350  Uiso  0.025330
    O1  O2-  1.0000  0.338230  0.744100  0.600350  Uiso  0.025330
    O1  O2-  1.0000  0.608810  0.744100  0.600350  Uiso  0.025330
    O1  O2-  1.0000  0.879390  0.744100  0.600350  Uiso  0.025330
    O1  O2-  1.0000  0.067650  0.202940  0.634170  Uiso  0.025330
    O1  O2-  1.0000  0.338230  0.202940  0.634170  Uiso  0.025330
    O1  O2-  1.0000  0.608810  0.202940  0.634170  Uiso  0.025330
    O1  O2-  1.0000  0.879390  0.202940  0.634170  Uiso  0.025330
    O1  O2-  1.0000  0.067650  0.473520  0.634170  Uiso  0.025330
    O1  O2-  1.0000  0.338230  0.473520  0.634170  Uiso  0.025330
    O1  O2-  1.0000  0.608810  0.473520  0.634170  Uiso  0.025330
    O1  O2-  1.0000  0.879390  0.473520  0.634170  Uiso  0.025330
    O1  O2-  1.0000  0.067650  0.744100  0.634170  Uiso  0.025330
    O1  O2-  1.0000  0.338230  0.744100  0.634170  Uiso  0.025330
    O1  O2-  1.0000  0.608810  0.744100  0.634170  Uiso  0.025330
    O1  O2-  1.0000  0.879390  0.744100  0.634170  Uiso  0.025330
    O1  O2-  1.0000  0.067650  0.202940  0.667990  Uiso  0.025330
    O1  O2-  1.0000  0.338230  0.202940  0.667990  Uiso  0.025330
    O1  O2-  1.0000  0.608810  0.202940  0.667990  Uiso  0.025330
    O1  O2-  1.0000  0.879390  0.202940  0.667990  Uiso  0.025330
    O1  O2-  1.0000  0.067650  0.473520  0.667990  Uiso  0.025330
    O1  O2-  1.0000  0.338230  0.473520  0.667990  Uiso  0.025330
    O1  O2-  1.0000  0.608810  0.473520  0.667990  Uiso  0.025330
    O1  O2-  1.0000  0.879390  0.473520  0.667990  Uiso  0.025330
    O1  O2-  1.0000  0.067650  0.744100  0.667990  Uiso  0.025330
    O1  O2-  1.0000  0.338230  0.744100  0.667990  Uiso  0.025330
    O1  O2-  1.0000  0.608810  0.744100  0.667990  Uiso  0.025330
    O1  O2-  1.0000  0.879390  0.744100  0.667990  Uiso  0.025330
    O1  O2-  1.0000  0.067650  0.202940  0.701820  Uiso  0.025330
    O1  O2-  1.0000  0.338230  0.202940  0.701820  Uiso  0.025330
    O1  O2-  1.0000  0.608810  0.202940  0.701820  Uiso  0.025330
    O1  O2-  1.0000  0.879390  0.202940  0.701820  Uiso  0.025330
    O1  O2-  1.0000  0.067650  0.473520  0.701820  Uiso  0.025330
    O1  O2-  1.0000  0.338230  0.473520  0.701820  Uiso  0.025330
    O1  O2-  1.0000  0.608810  0.473520  0.701820  Uiso  0.025330
    O1  O2-  1.0000  0.879390  0.473520  0.701820  Uiso  0.025330
    O1  O2-  1.0000  0.067650  0.744100  0.701820  Uiso  0.025330
    O1  O2-  1.0000  0.338230  0.744100  0.701820  Uiso  0.025330
    O1  O2-  1.0000  0.608810  0.744100  0.701820  Uiso  0.025330
    O1  O2-  1.0000  0.879390  0.744100  0.701820  Uiso  0.025330
    O1  O2-  1.0000  0.067650  0.202940  0.735640  Uiso  0.025330
    O1  O2-  1.0000  0.338230  0.202940  0.735640  Uiso  0.025330
    O1  O2-  1.0000  0.608810  0.202940  0.735640  Uiso  0.025330
    O1  O2-  1.0000  0.879390  0.202940  0.735640  Uiso  0.025330
    O1  O2-  1.0000  0.067650  0.473520  0.735640  Uiso  0.025330
    O1  O2-  1.0000  0.338230  0.473520  0.735640  Uiso  0.025330
    O1  O2-  1.0000  0.608810  0.473520  0.735640  Uiso  0.025330
    O1  O2-  1.0000  0.879390  0.473520  0.735640  Uiso  0.025330
    O1  O2-  1.0000  0.067650  0.744100  0.735640  Uiso  0.025330
    O1  O2-  1.0000  0.338230  0.744100  0.735640  Uiso  0.025330
    O1  O2-  1.0000  0.608810  0.744100  0.735640  Uiso  0.025330
    O1  O2-  1.0000  0.879390  0.744100  0.735640  Uiso  0.025330
    O1  O2-  1.0000  0.067650  0.202940  0.769460  Uiso  0.025330
    O1  O2-  1.0000  0.338230  0.202940  0.769460  Uiso  0.025330
    O1  O2-  1.0000  0.608810  0.202940  0.769460  Uiso  0.025330
    O1  O2-  1.0000  0.879390  0.202940  0.769460  Uiso  0.025330
    O1  O2-  1.0000  0.067650  0.473520  0.769460  Uiso  0.025330
    O1  O2-  1.0000  0.338230  0.473520  0.769460  Uiso  0.025330
    O1  O2-  1.0000  0.608810  0.473520  0.769460  Uiso  0.025330
    O1  O2-  1.0000  0.879390  0.473520  0.769460  Uiso  0.025330
    O1  O2-  1.0000  0.067650  0.744100  0.769460  Uiso  0.025330
    O1  O2-  1.0000  0.338230  0.744100  0.769460  Uiso  0.025330
    O1  O2-  1.0000  0.608810  0.744100  0.769460  Uiso  0.025330
    O1  O2-  1.0000  0.879390  0.744100  0.769460  Uiso  0.025330
    O1  O2-  1.0000  0.067650  0.202940  0.803280  Uiso  0.025330
    O1  O2-  1.0000  0.338230  0.202940  0.803280  Uiso  0.025330
    O1  O2-  1.0000  0.608810  0.202940  0.803280  Uiso  0.025330
    O1  O2-  1.0000  0.879390  0.202940  0.803280  Uiso  0.025330
    O1  O2-  1.0000  0.067650  0.473520  0.803280  Uiso  0.025330
    O1  O2-  1.0000  0.338230  0.473520  0.803280  Uiso  0.025330
    O1  O2-  1.0000  0.608810  0.473520  0.803280  Uiso  0.025330
    O1  O2-  1.0000  0.879390  0.473520  0.803280  Uiso  0.025330
    O1  O2-  1.0000  0.067650  0.744100  0.803280  Uiso  0.025330
    O1  O2-  1.0000  0.338230  0.744100  0.803280  Uiso  0.025330
    O1  O2-  1.0000  0.608810  0.744100  0.803280  Uiso  0.025330
    O1  O2-  1.0000  0.879390  0.744100  0.803280  Uiso  0.025330
    O1  O2-  1.0000  0.067650  0.202940  0.837110  Uiso  0.025330
    O1  O2-  1.0000  0.338230  0.202940  0.837110  Uiso  0.025330
    O1  O2-  1.0000  0.608810  0.202940  0.837110  Uiso  0.025330
    O1  O2-  1.0000  0.879390  0.202940  0.837110  Uiso  0.025330
    O1  O2-  1.0000  0.067650  0.473520  0.837110  Uiso  0.025330
    O1  O2-  1.0000  0.338230  0.473520  0.837110  Uiso  0.025330
    O1  O2-  1.0000  0.608810  0.473520  0.837110  Uiso  0.025330
    O1  O2-  1.0000  0.879390  0.473520  0.837110  Uiso  0.025330
    O1  O2-  1.0000  0.067650  0.744100  0.837110  Uiso  0.025330
    O1  O2-  1.0000  0.338230  0.744100  0.837110  Uiso  0.025330
    O1  O2-  1.0000  0.608810  0.744100  0.837110  Uiso  0.025330
    O1  O2-  1.0000  0.879390  0.744100  0.837110  Uiso  0.025330
    O1  O2-  1.0000  0.067650  0.202940  0.870930  Uiso  0.025330
    O1  O2-  1.0000  0.338230  0.202940  0.870930  Uiso  0.025330
    O1  O2-  1.0000  0.608810  0.202940  0.870930  Uiso  0.025330
    O1  O2-  1.0000  0.879390  0.202940  0.870930  Uiso  0.025330
    O1  O2-  1.0000  0.067650  0.473520  0.870930  Uiso  0.025330
    O1  O2-  1.0000  0.338230  0.473520  0.870930  Uiso  0.025330
    O1  O2-  1.0000  0.608810  0.473520  0.870930  Uiso  0.025330
    O1  O2-  1.0000  0.879390  0.473520  0.870930  Uiso  0.025330
    O1  O2-  1.0000  0.067650  0.744100  0.870930  Uiso  0.025330
    O1  O2-  1.0000  0.338230  0.744100  0.870930  Uiso  0.025330
    O1  O2-  1.0000  0.608810  0.744100  0.870930  Uiso  0.025330
    O1  O2-  1.0000  0.879390  0.744100  0.870930  Uiso  0.025330
    O1  O2-  1.0000  0.067650  0.202940  0.904750  Uiso  0.025330
    O1  O2-  1.0000  0.338230  0.202940  0.904750  Uiso  0.025330
    O1  O2-  1.0000  0.608810  0.202940  0.904750  Uiso  0.025330
    O1  O2-  1.0000  0.879390  0.202940  0.904750  Uiso  0.025330
    O1  O2-  1.0000  0.067650  0.473520  0.904750  Uiso  0.025330
    O1  O2-  1.0000  0.338230  0.473520  0.904750  Uiso  0.025330
    O1  O2-  1.0000  0.608810  0.473520  0.904750  Uiso  0.025330
    O1  O2-  1.0000  0.879390  0.473520  0.904750  Uiso  0.025330
    O1  O2-  1.0000  0.067650  0.744100  0.904750  Uiso  0.025330
    O1  O2-  1.0000  0.338230  0.744100  0.904750  Uiso  0.025330
    O1  O2-  1.0000  0.608810  0.744100  0.904750  Uiso  0.025330
    O1  O2-  1.0000  0.879390  0.744100  0.904750  Uiso  0.025330
    O1  O2-  1.0000  0.067650  0.202940  0.938570  Uiso  0.025330
    O1  O2-  1.0000  0.338230  0.202940  0.938570  Uiso  0.025330
    O1  O2-  1.0000  0.608810  0.202940  0.938570  Uiso  0.025330
    O1  O2-  1.0000  0.879390  0.202940  0.938570  Uiso  0.025330
    O1  O2-  1.0000  0.067650  0.473520  0.938570  Uiso  0.025330
    O1  O2-  1.0000  0.338230  0.473520  0.938570  Uiso  0.025330
    O1  O2-  1.0000  0.608810  0.473520  0.938570  Uiso  0.025330
    O1  O2-  1.0000  0.879390  0.473520  0.938570  Uiso  0.025330
    O1  O2-  1.0000  0.067650  0.744100  0.938570  Uiso  0.025330
    O1  O2-  1.0000  0.338230  0.744100  0.938570  Uiso  0.025330
    O1  O2-  1.0000  0.608810  0.744100  0.938570  Uiso  0.025330
    O1  O2-  1.0000  0.879390  0.744100  0.938570  Uiso  0.025330
    O1  O2-  1.0000  0.067650  0.202940  0.972400  Uiso  0.025330
    O1  O2-  1.0000  0.338230  0.202940  0.972400  Uiso  0.025330
    O1  O2-  1.0000  0.608810  0.202940  0.972400  Uiso  0.025330
    O1  O2-  1.0000  0.879390  0.202940  0.972400  Uiso  0.025330
    O1  O2-  1.0000  0.067650  0.473520  0.972400  Uiso  0.025330
    O1  O2-  1.0000  0.338230  0.473520  0.972400  Uiso  0.025330
    O1  O2-  1.0000  0.608810  0.473520  0.972400  Uiso  0.025330
    O1  O2-  1.0000  0.879390  0.473520  0.972400  Uiso  0.025330
    O1  O2-  1.0000  0.067650  0.744100  0.972400  Uiso  0.025330
    O1  O2-  1.0000  0.338230  0.744100  0.972400  Uiso  0.025330
    O1  O2-  1.0000  0.608810  0.744100  0.972400  Uiso  0.025330
    O1  O2-  1.0000  0.879390  0.744100  0.972400  Uiso  0.025330
    O1  O2-  1.0000  0.202940  0.067650  0.025370  Uiso  0.025330
    O1  O2-  1.0000  0.473520  0.067650  0.025370  Uiso  0.025330
    O1  O2-  1.0000  0.744100  0.067650  0.025370  Uiso  0.025330
    O1  O2-  1.0000  0.202940  0.338230  0.025370  Uiso  0.025330
    O1  O2-  1.0000  0.473520  0.338230  0.025370  Uiso  0.025330
    O1  O2-  1.0000  0.744100  0.338230  0.025370  Uiso  0.025330
    O1  O2-  1.0000  0.202940  0.608810  0.025370  Uiso  0.025330
    O1  O2-  1.0000  0.473520  0.608810  0.025370  Uiso  0.025330
    O1  O2-  1.0000  0.744100  0.608810  0.025370  Uiso  0.025330
    O1  O2-  1.0000  0.202940  0.879390  0.025370  Uiso  0.025330
    O1  O2-  1.0000  0.473520  0.879390  0.025370  Uiso  0.025330
    O1  O2-  1.0000  0.744100  0.879390  0.025370  Uiso  0.025330
    O1  O2-  1.0000  0.202940  0.067650  0.059190  Uiso  0.025330
    O1  O2-  1.0000  0.473520  0.067650  0.059190  Uiso  0.025330
    O1  O2-  1.0000  0.744100  0.067650  0.059190  Uiso  0.025330
    O1  O2-  1.0000  0.202940  0.338230  0.059190  Uiso  0.025330
    O1  O2-  1.0000  0.473520  0.338230  0.059190  Uiso  0.025330
    O1  O2-  1.0000  0.744100  0.338230  0.059190  Uiso  0.025330
    O1  O2-  1.0000  0.202940  0.608810  0.059190  Uiso  0.025330
    O1  O2-  1.0000  0.473520  0.608810  0.059190  Uiso  0.025330
    O1  O2-  1.0000  0.744100  0.608810  0.059190  Uiso  0.025330
    O1  O2-  1.0000  0.202940  0.879390  0.059190  Uiso  0.025330
    O1  O2-  1.0000  0.473520  0.879390  0.059190  Uiso  0.025330
    O1  O2-  1.0000  0.744100  0.879390  0.059190  Uiso  0.025330
    O1  O2-  1.0000  0.202940  0.067650  0.093010  Uiso  0.025330
    O1  O2-  1.0000  0.473520  0.067650  0.093010  Uiso  0.025330
    O1  O2-  1.0000  0.744100  0.067650  0.093010  Uiso  0.025330
    O1  O2-  1.0000  0.202940  0.338230  0.093010  Uiso  0.025330
    O1  O2-  1.0000  0.473520  0.338230  0.093010  Uiso  0.025330
    O1  O2-  1.0000  0.744100  0.338230  0.093010  Uiso  0.025330
    O1  O2-  1.0000  0.202940  0.608810  0.093010  Uiso  0.025330
    O1  O2-  1.0000  0.473520  0.608810  0.093010  Uiso  0.025330
    O1  O2-  1.0000  0.744100  0.608810  0.093010  Uiso  0.025330
    O1  O2-  1.0000  0.202940  0.879390  0.093010  Uiso  0.025330
    O1  O2-  1.0000  0.473520  0.879390  0.093010  Uiso  0.025330
    O1  O2-  1.0000  0.744100  0.879390  0.093010  Uiso  0.025330
    O1  O2-  1.0000  0.202940  0.067650  0.126830  Uiso  0.025330
    O1  O2-  1.0000  0.473520  0.067650  0.126830  Uiso  0.025330
    O1  O2-  1.0000  0.744100  0.067650  0.126830  Uiso  0.025330
    O1  O2-  1.0000  0.202940  0.338230  0.126830  Uiso  0.025330
    O1  O2-  1.0000  0.473520  0.338230  0.126830  Uiso  0.025330
    O1  O2-  1.0000  0.744100  0.338230  0.126830  Uiso  0.025330
    O1  O2-  1.0000  0.202940  0.608810  0.126830  Uiso  0.025330
    O1  O2-  1.0000  0.473520  0.608810  0.126830  Uiso  0.025330
    O1  O2-  1.0000  0.744100  0.608810  0.126830  Uiso  0.025330
    O1  O2-  1.0000  0.202940  0.879390  0.126830  Uiso  0.025330
    O1  O2-  1.0000  0.473520  0.879390  0.126830  Uiso  0.025330
    O1  O2-  1.0000  0.744100  0.879390  0.126830  Uiso  0.025330
    O1  O2-  1.0000  0.202940  0.067650  0.160660  Uiso  0.025330
    O1  O2-  1.0000  0.473520  0.067650  0.160660  Uiso  0.025330
    O1  O2-  1.0000  0.744100  0.067650  0.160660  Uiso  0.025330
    O1  O2-  1.0000  0.202940  0.338230  0.160660  Uiso  0.025330
    O1  O2-  1.0000  0.473520  0.338230  0.160660  Uiso  0.025330
    O1  O2-  1.0000  0.744100  0.338230  0.160660  Uiso  0.025330
    O1  O2-  1.0000  0.202940  0.608810  0.160660  Uiso  0.025330
    O1  O2-  1.0000  0.473520  0.608810  0.160660  Uiso  0.025330
    O1  O2-  1.0000  0.744100  0.608810  0.160660  Uiso  0.025330
    O1  O2-  1.0000  0.202940  0.879390  0.160660  Uiso  0.025330
    O1  O2-  1.0000  0.473520  0.879390  0.160660  Uiso  0.025330
    O1  O2-  1.0000  0.744100  0.879390  0.160660  Uiso  0.025330
    O1  O2-  1.0000  0.202940  0.067650  0.194480  Uiso  0.025330
    O1  O2-  1.0000  0.473520  0.067650  0.194480  Uiso  0.025330
    O1  O2-  1.0000  0.744100  0.067650  0.194480  Uiso  0.025330
    O1  O2-  1.0000  0.202940  0.338230  0.194480  Uiso  0.025330
    O1  O2-  1.0000  0.473520  0.338230  0.194480  Uiso  0.025330
    O1  O2-  1.0000  0.744100  0.338230  0.194480  Uiso  0.025330
    O1  O2-  1.0000  0.202940  0.608810  0.194480  Uiso  0.025330
    O1  O2-  1.0000  0.473520  0.608810  0.194480  Uiso  0.025330
    O1  O2-  1.0000  0.744100  0.608810  0.194480  Uiso  0.025330
    O1  O2-  1.0000  0.202940  0.879390  0.194480  Uiso  0.025330
    O1  O2-  1.0000  0.473520  0.879390  0.194480  Uiso  0.025330
    O1  O2-  1.0000  0.744100  0.879390  0.194480  Uiso  0.025330
    O1  O2-  1.0000  0.202940  0.067650  0.228300  Uiso  0.025330
    O1  O2-  1.0000  0.473520  0.067650  0.228300  Uiso  0.025330
    O1  O2-  1.0000  0.744100  0.067650  0.228300  Uiso  0.025330
    O1  O2-  1.0000  0.202940  0.338230  0.228300  Uiso  0.025330
    O1  O2-  1.0000  0.473520  0.338230  0.228300  Uiso  0.025330
    O1  O2-  1.0000  0.744100  0.338230  0.228300  Uiso  0.025330
    O1  O2-  1.0000  0.202940  0.608810  0.228300  Uiso  0.025330
    O1  O2-  1.0000  0.473520  0.608810  0.228300  Uiso  0.025330
    O1  O2-  1.0000  0.744100  0.608810  0.228300  Uiso  0.025330
    O1  O2-  1.0000  0.202940  0.879390  0.228300  Uiso  0.025330
    O1  O2-  1.0000  0.473520  0.879390  0.228300  Uiso  0.025330
    O1  O2-  1.0000  0.744100  0.879390  0.228300  Uiso  0.025330
    O1  O2-  1.0000  0.202940  0.067650  0.262120  Uiso  0.025330
    O1  O2-  1.0000  0.473520  0.067650  0.262120  Uiso  0.025330
    O1  O2-  1.0000  0.744100  0.067650  0.262120  Uiso  0.025330
    O1  O2-  1.0000  0.202940  0.338230  0.262120  Uiso  0.025330
    O1  O2-  1.0000  0.473520  0.338230  0.262120  Uiso  0.025330
    O1  O2-  1.0000  0.744100  0.338230  0.262120  Uiso  0.025330
    O1  O2-  1.0000  0.202940  0.608810  0.262120  Uiso  0.025330
    O1  O2-  1.0000  0.473520  0.608810  0.262120  Uiso  0.025330
    O1  O2-  1.0000  0.744100  0.608810  0.262120  Uiso  0.025330
    O1  O2-  1.0000  0.202940  0.879390  0.262120  Uiso  0.025330
    O1  O2-  1.0000  0.473520  0.879390  0.262120  Uiso  0.025330
    O1  O2-  1.0000  0.744100  0.879390  0.262120  Uiso  0.025330
    O1  O2-  1.0000  0.202940  0.067650  0.295950  Uiso  0.025330
    O1  O2-  1.0000  0.473520  0.067650  0.295950  Uiso  0.025330
    O1  O2-  1.0000  0.744100  0.067650  0.295950  Uiso  0.025330
    O1  O2-  1.0000  0.202940  0.338230  0.295950  Uiso  0.025330
    O1  O2-  1.0000  0.473520  0.338230  0.295950  Uiso  0.025330
    O1  O2-  1.0000  0.744100  0.338230  0.295950  Uiso  0.025330
    O1  O2-  1.0000  0.202940  0.608810  0.295950  Uiso  0.025330
    O1  O2-  1.0000  0.473520  0.608810  0.295950  Uiso  0.025330
    O1  O2-  1.0000  0.744100  0.608810  0.295950  Uiso  0.025330
    O1  O2-  1.0000  0.202940  0.879390  0.295950  Uiso  0.025330
    O1  O2-  1.0000  0.473520  0.879390  0.295950  Uiso  0.025330
    O1  O2-  1.0000  0.744100  0.879390  0.295950  Uiso  0.025330
    O1  O2-  1.0000  0.202940  0.067650  0.329770  Uiso  0.025330
    O1  O2-  1.0000  0.473520  0.067650  0.329770  Uiso  0.025330
    O1  O2-  1.0000  0.744100  0.067650  0.329770  Uiso  0.025330
    O1  O2-  1.0000  0.202940  0.338230  0.329770  Uiso  0.025330
    O1  O2-  1.0000  0.473520  0.338230  0.329770  Uiso  0.025330
    O1  O2-  1.0000  0.744100  0.338230  0.329770  Uiso  0.025330
    O1  O2-  1.0000  0.202940  0.608810  0.329770  Uiso  0.025330
    O1  O2-  1.0000  0.473520  0.608810  0.329770  Uiso  0.025330
    O1  O2-  1.0000  0.744100  0.608810  0.329770  Uiso  0.025330
    O1  O2-  1.0000  0.202940  0.879390  0.329770  Uiso  0.025330
    O1  O2-  1.0000  0.473520  0.879390  0.329770  Uiso  0.025330
    O1  O2-  1.0000  0.744100  0.879390  0.329770  Uiso  0.025330
    O1  O2-  1.0000  0.202940  0.067650  0.363590  Uiso  0.025330
    O1  O2-  1.0000  0.473520  0.067650  0.363590  Uiso  0.025330
    O1  O2-  1.0000  0.744100  0.067650  0.363590  Uiso  0.025330
    O1  O2-  1.0000  0.202940  0.338230  0.363590  Uiso  0.025330
    O1  O2-  1.0000  0.473520  0.338230  0.363590  Uiso  0.025330
    O1  O2-  1.0000  0.744100  0.338230  0.363590  Uiso  0.025330
    O1  O2-  1.0000  0.202940  0.608810  0.363590  Uiso  0.025330
    O1  O2-  1.0000  0.473520  0.608810  0.363590  Uiso  0.025330
    O1  O2-  1.0000  0.744100  0.608810  0.363590  Uiso  0.025330
    O1  O2-  1.0000  0.202940  0.879390  0.363590  Uiso  0.025330
    O1  O2-  1.0000  0.473520  0.879390  0.363590  Uiso  0.025330
    O1  O2-  1.0000  0.744100  0.879390  0.363590  Uiso  0.025330
    O1  O2-  1.0000  0.202940  0.067650  0.397410  Uiso  0.025330
    O1  O2-  1.0000  0.473520  0.067650  0.397410  Uiso  0.025330
    O1  O2-  1.0000  0.744100  0.067650  0.397410  Uiso  0.025330
    O1  O2-  1.0000  0.202940  0.338230  0.397410  Uiso  0.025330
    O1  O2-  1.0000  0.473520  0.338230  0.397410  Uiso  0.025330
    O1  O2-  1.0000  0.744100  0.338230  0.397410  Uiso  0.025330
    O1  O2-  1.0000  0.202940  0.608810  0.397410  Uiso  0.025330
    O1  O2-  1.0000  0.473520  0.608810  0.397410  Uiso  0.025330
    O1  O2-  1.0000  0.744100  0.608810  0.397410  Uiso  0.025330
    O1  O2-  1.0000  0.202940  0.879390  0.397410  Uiso  0.025330
    O1  O2-  1.0000  0.473520  0.879390  0.397410  Uiso  0.025330
    O1  O2-  1.0000  0.744100  0.879390  0.397410  Uiso  0.025330
    O1  O2-  1.0000  0.202940  0.067650  0.431240  Uiso  0.025330
    O1  O2-  1.0000  0.473520  0.067650  0.431240  Uiso  0.025330
    O1  O2-  1.0000  0.744100  0.067650  0.431240  Uiso  0.025330
    O1  O2-  1.0000  0.202940  0.338230  0.431240  Uiso  0.025330
    O1  O2-  1.0000  0.473520  0.338230  0.431240  Uiso  0.025330
    O1  O2-  1.0000  0.744100  0.338230  0.431240  Uiso  0.025330
    O1  O2-  1.0000  0.202940  0.608810  0.431240  Uiso  0.025330
    O1  O2-  1.0000  0.473520  0.608810  0.431240  Uiso  0.025330
    O1  O2-  1.0000  0.744100  0.608810  0.431240  Uiso  0.025330
    O1  O2-  1.0000  0.202940  0.879390  0.431240  Uiso  0.025330
    O1  O2-  1.0000  0.473520  0.879390  0.431240  Uiso  0.025330
    O1  O2-  1.0000  0.744100  0.879390  0.431240  Uiso  0.025330
    O1  O2-  1.0000  0.202940  0.067650  0.465060  Uiso  0.025330
    O1  O2-  1.0000  0.473520  0.067650  0.465060  Uiso  0.025330
    O1  O2-  1.0000  0.744100  0.067650  0.465060  Uiso  0.025330
    O1  O2-  1.0000  0.202940  0.338230  0.465060  Uiso  0.025330
    O1  O2-  1.0000  0.473520  0.338230  0.465060  Uiso  0.025330
    O1  O2-  1.0000  0.744100  0.338230  0.465060  Uiso  0.025330
    O1  O2-  1.0000  0.202940  0.608810  0.465060  Uiso  0.025330
    O1  O2-  1.0000  0.473520  0.608810  0.465060  Uiso  0.025330
    O1  O2-  1.0000  0.744100  0.608810  0.465060  Uiso  0.025330
    O1  O2-  1.0000  0.202940  0.879390  0.465060  Uiso  0.025330
    O1  O2-  1.0000  0.473520  0.879390  0.465060  Uiso  0.025330
    O1  O2-  1.0000  0.744100  0.879390  0.465060  Uiso  0.025330
    O1  O2-  1.0000  0.202940  0.067650  0.498880  Uiso  0.025330
    O1  O2-  1.0000  0.473520  0.067650  0.498880  Uiso  0.025330
    O1  O2-  1.0000  0.744100  0.067650  0.498880  Uiso  0.025330
    O1  O2-  1.0000  0.202940  0.338230  0.498880  Uiso  0.025330
    O1  O2-  1.0000  0.473520  0.338230  0.498880  Uiso  0.025330
    O1  O2-  1.0000  0.744100  0.338230  0.498880  Uiso  0.025330
    O1  O2-  1.0000  0.202940  0.608810  0.498880  Uiso  0.025330
    O1  O2-  1.0000  0.473520  0.608810  0.498880  Uiso  0.025330
    O1  O2-  1.0000  0.744100  0.608810  0.498880  Uiso  0.025330
    O1  O2-  1.0000  0.202940  0.879390  0.498880  Uiso  0.025330
    O1  O2-  1.0000  0.473520  0.879390  0.498880  Uiso  0.025330
    O1  O2-  1.0000  0.744100  0.879390  0.498880  Uiso  0.025330
    O1  O2-  1.0000  0.202940  0.067650  0.532700  Uiso  0.025330
    O1  O2-  1.0000  0.473520  0.067650  0.532700  Uiso  0.025330
    O1  O2-  1.0000  0.744100  0.067650  0.532700  Uiso  0.025330
    O1  O2-  1.0000  0.202940  0.338230  0.532700  Uiso  0.025330
    O1  O2-  1.0000  0.473520  0.338230  0.532700  Uiso  0.025330
    O1  O2-  1.0000  0.744100  0.338230  0.532700  Uiso  0.025330
    O1  O2-  1.0000  0.202940  0.608810  0.532700  Uiso  0.025330
    O1  O2-  1.0000  0.473520  0.608810  0.532700  Uiso  0.025330
    O1  O2-  1.0000  0.744100  0.608810  0.532700  Uiso  0.025330
    O1  O2-  1.0000  0.202940  0.879390  0.532700  Uiso  0.025330
    O1  O2-  1.0000  0.473520  0.879390  0.532700  Uiso  0.025330
    O1  O2-  1.0000  0.744100  0.879390  0.532700  Uiso  0.025330
    O1  O2-  1.0000  0.202940  0.067650  0.566530  Uiso  0.025330
    O1  O2-  1.0000  0.473520  0.067650  0.566530  Uiso  0.025330
    O1  O2-  1.0000  0.744100  0.067650  0.566530  Uiso  0.025330
    O1  O2-  1.0000  0.202940  0.338230  0.566530  Uiso  0.025330
    O1  O2-  1.0000  0.473520  0.338230  0.566530  Uiso  0.025330
    O1  O2-  1.0000  0.744100  0.338230  0.566530  Uiso  0.025330
    O1  O2-  1.0000  0.202940  0.608810  0.566530  Uiso  0.025330
    O1  O2-  1.0000  0.473520  0.608810  0.566530  Uiso  0.025330
    O1  O2-  1.0000  0.744100  0.608810  0.566530  Uiso  0.025330
    O1  O2-  1.0000  0.202940  0.879390  0.566530  Uiso  0.025330
    O1  O2-  1.0000  0.473520  0.879390  0.566530  Uiso  0.025330
    O1  O2-  1.0000  0.744100  0.879390  0.566530  Uiso  0.025330
    O1  O2-  1.0000  0.202940  0.067650  0.600350  Uiso  0.025330
    O1  O2-  1.0000  0.473520  0.067650  0.600350  Uiso  0.025330
    O1  O2-  1.0000  0.744100  0.067650  0.600350  Uiso  0.025330
    O1  O2-  1.0000  0.202940  0.338230  0.600350  Uiso  0.025330
    O1  O2-  1.0000  0.473520  0.338230  0.600350  Uiso  0.025330
    O1  O2-  1.0000  0.744100  0.338230  0.600350  Uiso  0.025330
    O1  O2-  1.0000  0.202940  0.608810  0.600350  Uiso  0.025330
    O1  O2-  1.0000  0.473520  0.608810  0.600350  Uiso  0.025330
    O1  O2-  1.0000  0.744100  0.608810  0.600350  Uiso  0.025330
    O1  O2-  1.0000  0.202940  0.879390  0.600350  Uiso  0.025330
    O1  O2-  1.0000  0.473520  0.879390  0.600350  Uiso  0.025330
    O1  O2-  1.0000  0.744100  0.879390  0.600350  Uiso  0.025330
    O1  O2-  1.0000  0.202940  0.067650  0.634170  Uiso  0.025330
    O1  O2-  1.0000  0.473520  0.067650  0.634170  Uiso  0.025330
    O1  O2-  1.0000  0.744100  0.067650  0.634170  Uiso  0.025330
    O1  O2-  1.0000  0.202940  0.338230  0.634170  Uiso  0.025330
    O1  O2-  1.0000  0.473520  0.338230  0.634170  Uiso  0.025330
    O1  O2-  1.0000  0.744100  0.338230  0.634170  Uiso  0.025330
    O1  O2-  1.0000  0.202940  0.608810  0.634170  Uiso  0.025330
    O1  O2-  1.0000  0.473520  0.608810  0.634170  Uiso  0.025330
    O1  O2-  1.0000  0.744100  0.608810  0.634170  Uiso  0.025330
    O1  O2-  1.0000  0.202940  0.879390  0.634170  Uiso  0.025330
    O1  O2-  1.0000  0.473520  0.879390  0.634170  Uiso  0.025330
    O1  O2-  1.0000  0.744100  0.879390  0.634170  Uiso  0.025330
    O1  O2-  1.0000  0.202940  0.067650  0.667990  Uiso  0.025330
    O1  O2-  1.0000  0.473520  0.067650  0.667990  Uiso  0.025330
    O1  O2-  1.0000  0.744100  0.067650  0.667990  Uiso  0.025330
    O1  O2-  1.0000  0.202940  0.338230  0.667990  Uiso  0.025330
    O1  O2-  1.0000  0.473520  0.338230  0.667990  Uiso  0.025330
    O1  O2-  1.0000  0.744100  0.338230  0.667990  Uiso  0.025330
    O1  O2-  1.0000  0.202940  0.608810  0.667990  Uiso  0.025330
    O1  O2-  1.0000  0.473520  0.608810  0.667990  Uiso  0.025330
    O1  O2-  1.0000  0.744100  0.608810  0.667990  Uiso  0.025330
    O1  O2-  1.0000  0.202940  0.879390  0.667990  Uiso  0.025330
    O1  O2-  1.0000  0.473520  0.879390  0.667990  Uiso  0.025330
    O1  O2-  1.0000  0.744100  0.879390  0.667990  Uiso  0.025330
    O1  O2-  1.0000  0.202940  0.067650  0.701820  Uiso  0.025330
    O1  O2-  1.0000  0.473520  0.067650  0.701820  Uiso  0.025330
    O1  O2-  1.0000  0.744100  0.067650  0.701820  Uiso  0.025330
    O1  O2-  1.0000  0.202940  0.338230  0.701820  Uiso  0.025330
    O1  O2-  1.0000  0.473520  0.338230  0.701820  Uiso  0.025330
    O1  O2-  1.0000  0.744100  0.338230  0.701820  Uiso  0.025330
    O1  O2-  1.0000  0.202940  0.608810  0.701820  Uiso  0.025330
    O1  O2-  1.0000  0.473520  0.608810  0.701820  Uiso  0.025330
    O1  O2-  1.0000  0.744100  0.608810  0.701820  Uiso  0.025330
    O1  O2-  1.0000  0.202940  0.879390  0.701820  Uiso  0.025330
    O1  O2-  1.0000  0.473520  0.879390  0.701820  Uiso  0.025330
    O1  O2-  1.0000  0.744100  0.879390  0.701820  Uiso  0.025330
    O1  O2-  1.0000  0.202940  0.067650  0.735640  Uiso  0.025330
    O1  O2-  1.0000  0.473520  0.067650  0.735640  Uiso  0.025330
    O1  O2-  1.0000  0.744100  0.067650  0.735640  Uiso  0.025330
    O1  O2-  1.0000  0.202940  0.338230  0.735640  Uiso  0.025330
    O1  O2-  1.0000  0.473520  0.338230  0.735640  Uiso  0.025330
    O1  O2-  1.0000  0.744100  0.338230  0.735640  Uiso  0.025330
    O1  O2-  1.0000  0.202940  0.608810  0.735640  Uiso  0.025330
    O1  O2-  1.0000  0.473520  0.608810  0.735640  Uiso  0.025330
    O1  O2-  1.0000  0.744100  0.608810  0.735640  Uiso  0.025330
    O1  O2-  1.0000  0.202940  0.879390  0.735640  Uiso  0.025330
    O1  O2-  1.0000  0.473520  0.879390  0.735640  Uiso  0.025330
    O1  O2-  1.0000  0.744100  0.879390  0.735640  Uiso  0.025330
    O1  O2-  1.0000  0.202940  0.067650  0.769460  Uiso  0.025330
    O1  O2-  1.0000  0.473520  0.067650  0.769460  Uiso  0.025330
    O1  O2-  1.0000  0.744100  0.067650  0.769460  Uiso  0.025330
    O1  O2-  1.0000  0.202940  0.338230  0.769460  Uiso  0.025330
    O1  O2-  1.0000  0.473520  0.338230  0.769460  Uiso  0.025330
    O1  O2-  1.0000  0.744100  0.338230  0.769460  Uiso  0.025330
    O1  O2-  1.0000  0.202940  0.608810  0.769460  Uiso  0.025330
    O1  O2-  1.0000  0.473520  0.608810  0.769460  Uiso  0.025330
    O1  O2-  1.0000  0.744100  0.608810  0.769460  Uiso  0.025330
    O1  O2-  1.0000  0.202940  0.879390  0.769460  Uiso  0.025330
    O1  O2-  1.0000  0.473520  0.879390  0.769460  Uiso  0.025330
    O1  O2-  1.0000  0.744100  0.879390  0.769460  Uiso  0.025330
    O1  O2-  1.0000  0.202940  0.067650  0.803280  Uiso  0.025330
    O1  O2-  1.0000  0.473520  0.067650  0.803280  Uiso  0.025330
    O1  O2-  1.0000  0.744100  0.067650  0.803280  Uiso  0.025330
    O1  O2-  1.0000  0.202940  0.338230  0.803280  Uiso  0.025330
    O1  O2-  1.0000  0.473520  0.338230  0.803280  Uiso  0.025330
    O1  O2-  1.0000  0.744100  0.338230  0.803280  Uiso  0.025330
    O1  O2-  1.0000  0.202940  0.608810  0.803280  Uiso  0.025330
    O1  O2-  1.0000  0.473520  0.608810  0.803280  Uiso  0.025330
    O1  O2-  1.0000  0.744100  0.608810  0.803280  Uiso  0.025330
    O1  O2-  1.0000  0.202940  0.879390  0.803280  Uiso  0.025330
    O1  O2-  1.0000  0.473520  0.879390  0.803280  Uiso  0.025330
    O1  O2-  1.0000  0.744100  0.879390  0.803280  Uiso  0.025330
    O1  O2-  1.0000  0.202940  0.067650  0.837110  Uiso  0.025330
    O1  O2-  1.0000  0.473520  0.067650  0.837110  Uiso  0.025330
    O1  O2-  1.0000  0.744100  0.067650  0.837110  Uiso  0.025330
    O1  O2-  1.0000  0.202940  0.338230  0.837110  Uiso  0.025330
    O1  O2-  1.0000  0.473520  0.338230  0.837110  Uiso  0.025330
    O1  O2-  1.0000  0.744100  0.338230  0.837110  Uiso  0.025330
    O1  O2-  1.0000  0.202940  0.608810  0.837110  Uiso  0.025330
    O1  O2-  1.0000  0.473520  0.608810  0.837110  Uiso  0.025330
    O1  O2-  1.0000  0.744100  0.608810  0.837110  Uiso  0.025330
    O1  O2-  1.0000  0.202940  0.879390  0.837110  Uiso  0.025330
    O1  O2-  1.0000  0.473520  0.879390  0.837110  Uiso  0.025330
    O1  O2-  1.0000  0.744100  0.879390  0.837110  Uiso  0.025330
    O1  O2-  1.0000  0.202940  0.067650  0.870930  Uiso  0.025330
    O1  O2-  1.0000  0.473520  0.067650  0.870930  Uiso  0.025330
    O1  O2-  1.0000  0.744100  0.067650  0.870930  Uiso  0.025330
    O1  O2-  1.0000  0.202940  0.338230  0.870930  Uiso  0.025330
    O1  O2-  1.0000  0.473520  0.338230  0.870930  Uiso  0.025330
    O1  O2-  1.0000  0.744100  0.338230  0.870930  Uiso  0.025330
    O1  O2-  1.0000  0.202940  0.608810  0.870930  Uiso  0.025330
    O1  O2-  1.0000  0.473520  0.608810  0.870930  Uiso  0.025330
    O1  O2-  1.0000  0.744100  0.608810  0.870930  Uiso  0.025330
    O1  O2-  1.0000  0.202940  0.879390  0.870930  Uiso  0.025330
    O1  O2-  1.0000  0.473520  0.879390  0.870930  Uiso  0.025330
    O1  O2-  1.0000  0.744100  0.879390  0.870930  Uiso  0.025330
    O1  O2-  1.0000  0.202940  0.067650  0.904750  Uiso  0.025330
    O1  O2-  1.0000  0.473520  0.067650  0.904750  Uiso  0.025330
    O1  O2-  1.0000  0.744100  0.067650  0.904750  Uiso  0.025330
    O1  O2-  1.0000  0.202940  0.338230  0.904750  Uiso  0.025330
    O1  O2-  1.0000  0.473520  0.338230  0.904750  Uiso  0.025330
    O1  O2-  1.0000  0.744100  0.338230  0.904750  Uiso  0.025330
    O1  O2-  1.0000  0.202940  0.608810  0.904750  Uiso  0.025330
    O1  O2-  1.0000  0.473520  0.608810  0.904750  Uiso  0.025330
    O1  O2-  1.0000  0.744100  0.608810  0.904750  Uiso  0.025330
    O1  O2-  1.0000  0.202940  0.879390  0.904750  Uiso  0.025330
    O1  O2-  1.0000  0.473520  0.879390  0.904750  Uiso  0.025330
    O1  O2-  1.0000  0.744100  0.879390  0.904750  Uiso  0.025330
    O1  O2-  1.0000  0.202940  0.067650  0.938570  Uiso  0.025330
    O1  O2-  1.0000  0.473520  0.067650  0.938570  Uiso  0.025330
    O1  O2-  1.0000  0.744100  0.067650  0.938570  Uiso  0.025330
    O1  O2-  1.0000  0.202940  0.338230  0.938570  Uiso  0.025330
    O1  O2-  1.0000  0.473520  0.338230  0.938570  Uiso  0.025330
    O1  O2-  1.0000  0.744100  0.338230  0.938570  Uiso  0.025330
    O1  O2-  1.0000  0.202940  0.608810  0.938570  Uiso  0.025330
    O1  O2-  1.0000  0.473520  0.608810  0.938570  Uiso  0.025330
    O1  O2-  1.0000  0.744100  0.608810  0.938570  Uiso  0.025330
    O1  O2-  1.0000  0.202940  0.879390  0.938570  Uiso  0.025330
    O1  O2-  1.0000  0.473520  0.879390  0.938570  Uiso  0.025330
    O1  O2-  1.0000  0.744100  0.879390  0.938570  Uiso  0.025330
    O1  O2-  1.0000  0.202940  0.067650  0.972400  Uiso  0.025330
    O1  O2-  1.0000  0.473520  0.067650  0.972400  Uiso  0.025330
    O1  O2-  1.0000  0.744100  0.067650  0.972400  Uiso  0.025330
    O1  O2-  1.0000  0.202940  0.338230  0.972400  Uiso  0.025330
    O1  O2-  1.0000  0.473520  0.338230  0.972400  Uiso  0.025330
    O1  O2-  1.0000  0.744100  0.338230  0.972400  Uiso  0.025330
    O1  O2-  1.0000  0.202940  0.608810  0.972400  Uiso  0.025330
    O1  O2-  1.0000  0.473520  0.608810  0.972400  Uiso  0.025330
    O1  O2-  1.0000  0.744100  0.608810  0.972400  Uiso  0.025330
    O1  O2-  1.0000  0.202940  0.879390  0.972400  Uiso  0.025330
    O1  O2-  1.0000  0.473520  0.879390  0.972400  Uiso  0.025330
    O1  O2-  1.0000  0.744100  0.879390  0.972400  Uiso  0.025330
    O1  O2-  1.0000  0.202940  0.067650  0.008460  Uiso  0.025330
    O1  O2-  1.0000  0.473520  0.067650  0.008460  Uiso  0.025330
    O1  O2-  1.0000  0.744100  0.067650  0.008460  Uiso  0.025330
    O1  O2-  1.0000  0.202940  0.338230  0.008460  Uiso  0.025330
    O1  O2-  1.0000  0.473520  0.338230  0.008460  Uiso  0.025330
    O1  O2-  1.0000  0.744100  0.338230  0.008460  Uiso  0.025330
    O1  O2-  1.0000  0.202940  0.608810  0.008460  Uiso  0.025330
    O1  O2-  1.0000  0.473520  0.608810  0.008460  Uiso  0.025330
    O1  O2-  1.0000  0.744100  0.608810  0.008460  Uiso  0.025330
    O1  O2-  1.0000  0.202940  0.879390  0.008460  Uiso  0.025330
    O1  O2-  1.0000  0.473520  0.879390  0.008460  Uiso  0.025330
    O1  O2-  1.0000  0.744100  0.879390  0.008460  Uiso  0.025330
    O1  O2-  1.0000  0.202940  0.067650  0.042280  Uiso  0.025330
    O1  O2-  1.0000  0.473520  0.067650  0.042280  Uiso  0.025330
    O1  O2-  1.0000  0.744100  0.067650  0.042280  Uiso  0.025330
    O1  O2-  1.0000  0.202940  0.338230  0.042280  Uiso  0.025330
    O1  O2-  1.0000  0.473520  0.338230  0.042280  Uiso  0.025330
    O1  O2-  1.0000  0.744100  0.338230  0.042280  Uiso  0.025330
    O1  O2-  1.0000  0.202940  0.608810  0.042280  Uiso  0.025330
    O1  O2-  1.0000  0.473520  0.608810  0.042280  Uiso  0.025330
    O1  O2-  1.0000  0.744100  0.608810  0.042280  Uiso  0.025330
    O1  O2-  1.0000  0.202940  0.879390  0.042280  Uiso  0.025330
    O1  O2-  1.0000  0.473520  0.879390  0.042280  Uiso  0.025330
    O1  O2-  1.0000  0.744100  0.879390  0.042280  Uiso  0.025330
    O1  O2-  1.0000  0.202940  0.067650  0.076100  Uiso  0.025330
    O1  O2-  1.0000  0.473520  0.067650  0.076100  Uiso  0.025330
    O1  O2-  1.0000  0.744100  0.067650  0.076100  Uiso  0.025330
    O1  O2-  1.0000  0.202940  0.338230  0.076100  Uiso  0.025330
    O1  O2-  1.0000  0.473520  0.338230  0.076100  Uiso  0.025330
    O1  O2-  1.0000  0.744100  0.338230  0.076100  Uiso  0.025330
    O1  O2-  1.0000  0.202940  0.608810  0.076100  Uiso  0.025330
    O1  O2-  1.0000  0.473520  0.608810  0.076100  Uiso  0.025330
    O1  O2-  1.0000  0.744100  0.608810  0.076100  Uiso  0.025330
    O1  O2-  1.0000  0.202940  0.879390  0.076100  Uiso  0.025330
    O1  O2-  1.0000  0.473520  0.879390  0.076100  Uiso  0.025330
    O1  O2-  1.0000  0.744100  0.879390  0.076100  Uiso  0.025330
    O1  O2-  1.0000  0.202940  0.067650  0.109920  Uiso  0.025330
    O1  O2-  1.0000  0.473520  0.067650  0.109920  Uiso  0.025330
    O1  O2-  1.0000  0.744100  0.067650  0.109920  Uiso  0.025330
    O1  O2-  1.0000  0.202940  0.338230  0.109920  Uiso  0.025330
    O1  O2-  1.0000  0.473520  0.338230  0.109920  Uiso  0.025330
    O1  O2-  1.0000  0.744100  0.338230  0.109920  Uiso  0.025330
    O1  O2-  1.0000  0.202940  0.608810  0.109920  Uiso  0.025330
    O1  O2-  1.0000  0.473520  0.608810  0.109920  Uiso  0.025330
    O1  O2-  1.0000  0.744100  0.608810  0.109920  Uiso  0.025330
    O1  O2-  1.0000  0.202940  0.879390  0.109920  Uiso  0.025330
    O1  O2-  1.0000  0.473520  0.879390  0.109920  Uiso  0.025330
    O1  O2-  1.0000  0.744100  0.879390  0.109920  Uiso  0.025330
    O1  O2-  1.0000  0.202940  0.067650  0.143750  Uiso  0.025330
    O1  O2-  1.0000  0.473520  0.067650  0.143750  Uiso  0.025330
    O1  O2-  1.0000  0.744100  0.067650  0.143750  Uiso  0.025330
    O1  O2-  1.0000  0.202940  0.338230  0.143750  Uiso  0.025330
    O1  O2-  1.0000  0.473520  0.338230  0.143750  Uiso  0.025330
    O1  O2-  1.0000  0.744100  0.338230  0.143750  Uiso  0.025330
    O1  O2-  1.0000  0.202940  0.608810  0.143750  Uiso  0.025330
    O1  O2-  1.0000  0.473520  0.608810  0.143750  Uiso  0.025330
    O1  O2-  1.0000  0.744100  0.608810  0.143750  Uiso  0.025330
    O1  O2-  1.0000  0.202940  0.879390  0.143750  Uiso  0.025330
    O1  O2-  1.0000  0.473520  0.879390  0.143750  Uiso  0.025330
    O1  O2-  1.0000  0.744100  0.879390  0.143750  Uiso  0.025330
    O1  O2-  1.0000  0.202940  0.067650  0.177570  Uiso  0.025330
    O1  O2-  1.0000  0.473520  0.067650  0.177570  Uiso  0.025330
    O1  O2-  1.0000  0.744100  0.067650  0.177570  Uiso  0.025330
    O1  O2-  1.0000  0.202940  0.338230  0.177570  Uiso  0.025330
    O1  O2-  1.0000  0.473520  0.338230  0.177570  Uiso  0.025330
    O1  O2-  1.0000  0.744100  0.338230  0.177570  Uiso  0.025330
    O1  O2-  1.0000  0.202940  0.608810  0.177570  Uiso  0.025330
    O1  O2-  1.0000  0.473520  0.608810  0.177570  Uiso  0.025330
    O1  O2-  1.0000  0.744100  0.608810  0.177570  Uiso  0.025330
    O1  O2-  1.0000  0.202940  0.879390  0.177570  Uiso  0.025330
    O1  O2-  1.0000  0.473520  0.879390  0.177570  Uiso  0.025330
    O1  O2-  1.0000  0.744100  0.879390  0.177570  Uiso  0.025330
    O1  O2-  1.0000  0.202940  0.067650  0.211390  Uiso  0.025330
    O1  O2-  1.0000  0.473520  0.067650  0.211390  Uiso  0.025330
    O1  O2-  1.0000  0.744100  0.067650  0.211390  Uiso  0.025330
    O1  O2-  1.0000  0.202940  0.338230  0.211390  Uiso  0.025330
    O1  O2-  1.0000  0.473520  0.338230  0.211390  Uiso  0.025330
    O1  O2-  1.0000  0.744100  0.338230  0.211390  Uiso  0.025330
    O1  O2-  1.0000  0.202940  0.608810  0.211390  Uiso  0.025330
    O1  O2-  1.0000  0.473520  0.608810  0.211390  Uiso  0.025330
    O1  O2-  1.0000  0.744100  0.608810  0.211390  Uiso  0.025330
    O1  O2-  1.0000  0.202940  0.879390  0.211390  Uiso  0.025330
    O1  O2-  1.0000  0.473520  0.879390  0.211390  Uiso  0.025330
    O1  O2-  1.0000  0.744100  0.879390  0.211390  Uiso  0.025330
    O1  O2-  1.0000  0.202940  0.067650  0.245210  Uiso  0.025330
    O1  O2-  1.0000  0.473520  0.067650  0.245210  Uiso  0.025330
    O1  O2-  1.0000  0.744100  0.067650  0.245210  Uiso  0.025330
    O1  O2-  1.0000  0.202940  0.338230  0.245210  Uiso  0.025330
    O1  O2-  1.0000  0.473520  0.338230  0.245210  Uiso  0.025330
    O1  O2-  1.0000  0.744100  0.338230  0.245210  Uiso  0.025330
    O1  O2-  1.0000  0.202940  0.608810  0.245210  Uiso  0.025330
    O1  O2-  1.0000  0.473520  0.608810  0.245210  Uiso  0.025330
    O1  O2-  1.0000  0.744100  0.608810  0.245210  Uiso  0.025330
    O1  O2-  1.0000  0.202940  0.879390  0.245210  Uiso  0.025330
    O1  O2-  1.0000  0.473520  0.879390  0.245210  Uiso  0.025330
    O1  O2-  1.0000  0.744100  0.879390  0.245210  Uiso  0.025330
    O1  O2-  1.0000  0.202940  0.067650  0.279040  Uiso  0.025330
    O1  O2-  1.0000  0.473520  0.067650  0.279040  Uiso  0.025330
    O1  O2-  1.0000  0.744100  0.067650  0.279040  Uiso  0.025330
    O1  O2-  1.0000  0.202940  0.338230  0.279040  Uiso  0.025330
    O1  O2-  1.0000  0.473520  0.338230  0.279040  Uiso  0.025330
    O1  O2-  1.0000  0.744100  0.338230  0.279040  Uiso  0.025330
    O1  O2-  1.0000  0.202940  0.608810  0.279040  Uiso  0.025330
    O1  O2-  1.0000  0.473520  0.608810  0.279040  Uiso  0.025330
    O1  O2-  1.0000  0.744100  0.608810  0.279040  Uiso  0.025330
    O1  O2-  1.0000  0.202940  0.879390  0.279040  Uiso  0.025330
    O1  O2-  1.0000  0.473520  0.879390  0.279040  Uiso  0.025330
    O1  O2-  1.0000  0.744100  0.879390  0.279040  Uiso  0.025330
    O1  O2-  1.0000  0.202940  0.067650  0.312860  Uiso  0.025330
    O1  O2-  1.0000  0.473520  0.067650  0.312860  Uiso  0.025330
    O1  O2-  1.0000  0.744100  0.067650  0.312860  Uiso  0.025330
    O1  O2-  1.0000  0.202940  0.338230  0.312860  Uiso  0.025330
    O1  O2-  1.0000  0.473520  0.338230  0.312860  Uiso  0.025330
    O1  O2-  1.0000  0.744100  0.338230  0.312860  Uiso  0.025330
    O1  O2-  1.0000  0.202940  0.608810  0.312860  Uiso  0.025330
    O1  O2-  1.0000  0.473520  0.608810  0.312860  Uiso  0.025330
    O1  O2-  1.0000  0.744100  0.608810  0.312860  Uiso  0.025330
    O1  O2-  1.0000  0.202940  0.879390  0.312860  Uiso  0.025330
    O1  O2-  1.0000  0.473520  0.879390  0.312860  Uiso  0.025330
    O1  O2-  1.0000  0.744100  0.879390  0.312860  Uiso  0.025330
    O1  O2-  1.0000  0.202940  0.067650  0.346680  Uiso  0.025330
    O1  O2-  1.0000  0.473520  0.067650  0.346680  Uiso  0.025330
    O1  O2-  1.0000  0.744100  0.067650  0.346680  Uiso  0.025330
    O1  O2-  1.0000  0.202940  0.338230  0.346680  Uiso  0.025330
    O1  O2-  1.0000  0.473520  0.338230  0.346680  Uiso  0.025330
    O1  O2-  1.0000  0.744100  0.338230  0.346680  Uiso  0.025330
    O1  O2-  1.0000  0.202940  0.608810  0.346680  Uiso  0.025330
    O1  O2-  1.0000  0.473520  0.608810  0.346680  Uiso  0.025330
    O1  O2-  1.0000  0.744100  0.608810  0.346680  Uiso  0.025330
    O1  O2-  1.0000  0.202940  0.879390  0.346680  Uiso  0.025330
    O1  O2-  1.0000  0.473520  0.879390  0.346680  Uiso  0.025330
    O1  O2-  1.0000  0.744100  0.879390  0.346680  Uiso  0.025330
    O1  O2-  1.0000  0.202940  0.067650  0.380500  Uiso  0.025330
    O1  O2-  1.0000  0.473520  0.067650  0.380500  Uiso  0.025330
    O1  O2-  1.0000  0.744100  0.067650  0.380500  Uiso  0.025330
    O1  O2-  1.0000  0.202940  0.338230  0.380500  Uiso  0.025330
    O1  O2-  1.0000  0.473520  0.338230  0.380500  Uiso  0.025330
    O1  O2-  1.0000  0.744100  0.338230  0.380500  Uiso  0.025330
    O1  O2-  1.0000  0.202940  0.608810  0.380500  Uiso  0.025330
    O1  O2-  1.0000  0.473520  0.608810  0.380500  Uiso  0.025330
    O1  O2-  1.0000  0.744100  0.608810  0.380500  Uiso  0.025330
    O1  O2-  1.0000  0.202940  0.879390  0.380500  Uiso  0.025330
    O1  O2-  1.0000  0.473520  0.879390  0.380500  Uiso  0.025330
    O1  O2-  1.0000  0.744100  0.879390  0.380500  Uiso  0.025330
    O1  O2-  1.0000  0.202940  0.067650  0.414330  Uiso  0.025330
    O1  O2-  1.0000  0.473520  0.067650  0.414330  Uiso  0.025330
    O1  O2-  1.0000  0.744100  0.067650  0.414330  Uiso  0.025330
    O1  O2-  1.0000  0.202940  0.338230  0.414330  Uiso  0.025330
    O1  O2-  1.0000  0.473520  0.338230  0.414330  Uiso  0.025330
    O1  O2-  1.0000  0.744100  0.338230  0.414330  Uiso  0.025330
    O1  O2-  1.0000  0.202940  0.608810  0.414330  Uiso  0.025330
    O1  O2-  1.0000  0.473520  0.608810  0.414330  Uiso  0.025330
    O1  O2-  1.0000  0.744100  0.608810  0.414330  Uiso  0.025330
    O1  O2-  1.0000  0.202940  0.879390  0.414330  Uiso  0.025330
    O1  O2-  1.0000  0.473520  0.879390  0.414330  Uiso  0.025330
    O1  O2-  1.0000  0.744100  0.879390  0.414330  Uiso  0.025330
    O1  O2-  1.0000  0.202940  0.067650  0.448150  Uiso  0.025330
    O1  O2-  1.0000  0.473520  0.067650  0.448150  Uiso  0.025330
    O1  O2-  1.0000  0.744100  0.067650  0.448150  Uiso  0.025330
    O1  O2-  1.0000  0.202940  0.338230  0.448150  Uiso  0.025330
    O1  O2-  1.0000  0.473520  0.338230  0.448150  Uiso  0.025330
    O1  O2-  1.0000  0.744100  0.338230  0.448150  Uiso  0.025330
    O1  O2-  1.0000  0.202940  0.608810  0.448150  Uiso  0.025330
    O1  O2-  1.0000  0.473520  0.608810  0.448150  Uiso  0.025330
    O1  O2-  1.0000  0.744100  0.608810  0.448150  Uiso  0.025330
    O1  O2-  1.0000  0.202940  0.879390  0.448150  Uiso  0.025330
    O1  O2-  1.0000  0.473520  0.879390  0.448150  Uiso  0.025330
    O1  O2-  1.0000  0.744100  0.879390  0.448150  Uiso  0.025330
    O1  O2-  1.0000  0.202940  0.067650  0.481970  Uiso  0.025330
    O1  O2-  1.0000  0.473520  0.067650  0.481970  Uiso  0.025330
    O1  O2-  1.0000  0.744100  0.067650  0.481970  Uiso  0.025330
    O1  O2-  1.0000  0.202940  0.338230  0.481970  Uiso  0.025330
    O1  O2-  1.0000  0.473520  0.338230  0.481970  Uiso  0.025330
    O1  O2-  1.0000  0.744100  0.338230  0.481970  Uiso  0.025330
    O1  O2-  1.0000  0.202940  0.608810  0.481970  Uiso  0.025330
    O1  O2-  1.0000  0.473520  0.608810  0.481970  Uiso  0.025330
    O1  O2-  1.0000  0.744100  0.608810  0.481970  Uiso  0.025330
    O1  O2-  1.0000  0.202940  0.879390  0.481970  Uiso  0.025330
    O1  O2-  1.0000  0.473520  0.879390  0.481970  Uiso  0.025330
    O1  O2-  1.0000  0.744100  0.879390  0.481970  Uiso  0.025330
    O1  O2-  1.0000  0.202940  0.067650  0.515790  Uiso  0.025330
    O1  O2-  1.0000  0.473520  0.067650  0.515790  Uiso  0.025330
    O1  O2-  1.0000  0.744100  0.067650  0.515790  Uiso  0.025330
    O1  O2-  1.0000  0.202940  0.338230  0.515790  Uiso  0.025330
    O1  O2-  1.0000  0.473520  0.338230  0.515790  Uiso  0.025330
    O1  O2-  1.0000  0.744100  0.338230  0.515790  Uiso  0.025330
    O1  O2-  1.0000  0.202940  0.608810  0.515790  Uiso  0.025330
    O1  O2-  1.0000  0.473520  0.608810  0.515790  Uiso  0.025330
    O1  O2-  1.0000  0.744100  0.608810  0.515790  Uiso  0.025330
    O1  O2-  1.0000  0.202940  0.879390  0.515790  Uiso  0.025330
    O1  O2-  1.0000  0.473520  0.879390  0.515790  Uiso  0.025330
    O1  O2-  1.0000  0.744100  0.879390  0.515790  Uiso  0.025330
    O1  O2-  1.0000  0.202940  0.067650  0.549620  Uiso  0.025330
    O1  O2-  1.0000  0.473520  0.067650  0.549620  Uiso  0.025330
    O1  O2-  1.0000  0.744100  0.067650  0.549620  Uiso  0.025330
    O1  O2-  1.0000  0.202940  0.338230  0.549620  Uiso  0.025330
    O1  O2-  1.0000  0.473520  0.338230  0.549620  Uiso  0.025330
    O1  O2-  1.0000  0.744100  0.338230  0.549620  Uiso  0.025330
    O1  O2-  1.0000  0.202940  0.608810  0.549620  Uiso  0.025330
    O1  O2-  1.0000  0.473520  0.608810  0.549620  Uiso  0.025330
    O1  O2-  1.0000  0.744100  0.608810  0.549620  Uiso  0.025330
    O1  O2-  1.0000  0.202940  0.879390  0.549620  Uiso  0.025330
    O1  O2-  1.0000  0.473520  0.879390  0.549620  Uiso  0.025330
    O1  O2-  1.0000  0.744100  0.879390  0.549620  Uiso  0.025330
    O1  O2-  1.0000  0.202940  0.067650  0.583440  Uiso  0.025330
    O1  O2-  1.0000  0.473520  0.067650  0.583440  Uiso  0.025330
    O1  O2-  1.0000  0.744100  0.067650  0.583440  Uiso  0.025330
    O1  O2-  1.0000  0.202940  0.338230  0.583440  Uiso  0.025330
    O1  O2-  1.0000  0.473520  0.338230  0.583440  Uiso  0.025330
    O1  O2-  1.0000  0.744100  0.338230  0.583440  Uiso  0.025330
    O1  O2-  1.0000  0.202940  0.608810  0.583440  Uiso  0.025330
    O1  O2-  1.0000  0.473520  0.608810  0.583440  Uiso  0.025330
    O1  O2-  1.0000  0.744100  0.608810  0.583440  Uiso  0.025330
    O1  O2-  1.0000  0.202940  0.879390  0.583440  Uiso  0.025330
    O1  O2-  1.0000  0.473520  0.879390  0.583440  Uiso  0.025330
    O1  O2-  1.0000  0.744100  0.879390  0.583440  Uiso  0.025330
    O1  O2-  1.0000  0.202940  0.067650  0.617260  Uiso  0.025330
    O1  O2-  1.0000  0.473520  0.067650  0.617260  Uiso  0.025330
    O1  O2-  1.0000  0.744100  0.067650  0.617260  Uiso  0.025330
    O1  O2-  1.0000  0.202940  0.338230  0.617260  Uiso  0.025330
    O1  O2-  1.0000  0.473520  0.338230  0.617260  Uiso  0.025330
    O1  O2-  1.0000  0.744100  0.338230  0.617260  Uiso  0.025330
    O1  O2-  1.0000  0.202940  0.608810  0.617260  Uiso  0.025330
    O1  O2-  1.0000  0.473520  0.608810  0.617260  Uiso  0.025330
    O1  O2-  1.0000  0.744100  0.608810  0.617260  Uiso  0.025330
    O1  O2-  1.0000  0.202940  0.879390  0.617260  Uiso  0.025330
    O1  O2-  1.0000  0.473520  0.879390  0.617260  Uiso  0.025330
    O1  O2-  1.0000  0.744100  0.879390  0.617260  Uiso  0.025330
    O1  O2-  1.0000  0.202940  0.067650  0.651080  Uiso  0.025330
    O1  O2-  1.0000  0.473520  0.067650  0.651080  Uiso  0.025330
    O1  O2-  1.0000  0.744100  0.067650  0.651080  Uiso  0.025330
    O1  O2-  1.0000  0.202940  0.338230  0.651080  Uiso  0.025330
    O1  O2-  1.0000  0.473520  0.338230  0.651080  Uiso  0.025330
    O1  O2-  1.0000  0.744100  0.338230  0.651080  Uiso  0.025330
    O1  O2-  1.0000  0.202940  0.608810  0.651080  Uiso  0.025330
    O1  O2-  1.0000  0.473520  0.608810  0.651080  Uiso  0.025330
    O1  O2-  1.0000  0.744100  0.608810  0.651080  Uiso  0.025330
    O1  O2-  1.0000  0.202940  0.879390  0.651080  Uiso  0.025330
    O1  O2-  1.0000  0.473520  0.879390  0.651080  Uiso  0.025330
    O1  O2-  1.0000  0.744100  0.879390  0.651080  Uiso  0.025330
    O1  O2-  1.0000  0.202940  0.067650  0.684910  Uiso  0.025330
    O1  O2-  1.0000  0.473520  0.067650  0.684910  Uiso  0.025330
    O1  O2-  1.0000  0.744100  0.067650  0.684910  Uiso  0.025330
    O1  O2-  1.0000  0.202940  0.338230  0.684910  Uiso  0.025330
    O1  O2-  1.0000  0.473520  0.338230  0.684910  Uiso  0.025330
    O1  O2-  1.0000  0.744100  0.338230  0.684910  Uiso  0.025330
    O1  O2-  1.0000  0.202940  0.608810  0.684910  Uiso  0.025330
    O1  O2-  1.0000  0.473520  0.608810  0.684910  Uiso  0.025330
    O1  O2-  1.0000  0.744100  0.608810  0.684910  Uiso  0.025330
    O1  O2-  1.0000  0.202940  0.879390  0.684910  Uiso  0.025330
    O1  O2-  1.0000  0.473520  0.879390  0.684910  Uiso  0.025330
    O1  O2-  1.0000  0.744100  0.879390  0.684910  Uiso  0.025330
    O1  O2-  1.0000  0.202940  0.067650  0.718730  Uiso  0.025330
    O1  O2-  1.0000  0.473520  0.067650  0.718730  Uiso  0.025330
    O1  O2-  1.0000  0.744100  0.067650  0.718730  Uiso  0.025330
    O1  O2-  1.0000  0.202940  0.338230  0.718730  Uiso  0.025330
    O1  O2-  1.0000  0.473520  0.338230  0.718730  Uiso  0.025330
    O1  O2-  1.0000  0.744100  0.338230  0.718730  Uiso  0.025330
    O1  O2-  1.0000  0.202940  0.608810  0.718730  Uiso  0.025330
    O1  O2-  1.0000  0.473520  0.608810  0.718730  Uiso  0.025330
    O1  O2-  1.0000  0.744100  0.608810  0.718730  Uiso  0.025330
    O1  O2-  1.0000  0.202940  0.879390  0.718730  Uiso  0.025330
    O1  O2-  1.0000  0.473520  0.879390  0.718730  Uiso  0.025330
    O1  O2-  1.0000  0.744100  0.879390  0.718730  Uiso  0.025330
    O1  O2-  1.0000  0.202940  0.067650  0.752550  Uiso  0.025330
    O1  O2-  1.0000  0.473520  0.067650  0.752550  Uiso  0.025330
    O1  O2-  1.0000  0.744100  0.067650  0.752550  Uiso  0.025330
    O1  O2-  1.0000  0.202940  0.338230  0.752550  Uiso  0.025330
    O1  O2-  1.0000  0.473520  0.338230  0.752550  Uiso  0.025330
    O1  O2-  1.0000  0.744100  0.338230  0.752550  Uiso  0.025330
    O1  O2-  1.0000  0.202940  0.608810  0.752550  Uiso  0.025330
    O1  O2-  1.0000  0.473520  0.608810  0.752550  Uiso  0.025330
    O1  O2-  1.0000  0.744100  0.608810  0.752550  Uiso  0.025330
    O1  O2-  1.0000  0.202940  0.879390  0.752550  Uiso  0.025330
    O1  O2-  1.0000  0.473520  0.879390  0.752550  Uiso  0.025330
    O1  O2-  1.0000  0.744100  0.879390  0.752550  Uiso  0.025330
    O1  O2-  1.0000  0.202940  0.067650  0.786370  Uiso  0.025330
    O1  O2-  1.0000  0.473520  0.067650  0.786370  Uiso  0.025330
    O1  O2-  1.0000  0.744100  0.067650  0.786370  Uiso  0.025330
    O1  O2-  1.0000  0.202940  0.338230  0.786370  Uiso  0.025330
    O1  O2-  1.0000  0.473520  0.338230  0.786370  Uiso  0.025330
    O1  O2-  1.0000  0.744100  0.338230  0.786370  Uiso  0.025330
    O1  O2-  1.0000  0.202940  0.608810  0.786370  Uiso  0.025330
    O1  O2-  1.0000  0.473520  0.608810  0.786370  Uiso  0.025330
    O1  O2-  1.0000  0.744100  0.608810  0.786370  Uiso  0.025330
    O1  O2-  1.0000  0.202940  0.879390  0.786370  Uiso  0.025330
    O1  O2-  1.0000  0.473520  0.879390  0.786370  Uiso  0.025330
    O1  O2-  1.0000  0.744100  0.879390  0.786370  Uiso  0.025330
    O1  O2-  1.0000  0.202940  0.067650  0.820200  Uiso  0.025330
    O1  O2-  1.0000  0.473520  0.067650  0.820200  Uiso  0.025330
    O1  O2-  1.0000  0.744100  0.067650  0.820200  Uiso  0.025330
    O1  O2-  1.0000  0.202940  0.338230  0.820200  Uiso  0.025330
    O1  O2-  1.0000  0.473520  0.338230  0.820200  Uiso  0.025330
    O1  O2-  1.0000  0.744100  0.338230  0.820200  Uiso  0.025330
    O1  O2-  1.0000  0.202940  0.608810  0.820200  Uiso  0.025330
    O1  O2-  1.0000  0.473520  0.608810  0.820200  Uiso  0.025330
    O1  O2-  1.0000  0.744100  0.608810  0.820200  Uiso  0.025330
    O1  O2-  1.0000  0.202940  0.879390  0.820200  Uiso  0.025330
    O1  O2-  1.0000  0.473520  0.879390  0.820200  Uiso  0.025330
    O1  O2-  1.0000  0.744100  0.879390  0.820200  Uiso  0.025330
    O1  O2-  1.0000  0.202940  0.067650  0.854020  Uiso  0.025330
    O1  O2-  1.0000  0.473520  0.067650  0.854020  Uiso  0.025330
    O1  O2-  1.0000  0.744100  0.067650  0.854020  Uiso  0.025330
    O1  O2-  1.0000  0.202940  0.338230  0.854020  Uiso  0.025330
    O1  O2-  1.0000  0.473520  0.338230  0.854020  Uiso  0.025330
    O1  O2-  1.0000  0.744100  0.338230  0.854020  Uiso  0.025330
    O1  O2-  1.0000  0.202940  0.608810  0.854020  Uiso  0.025330
    O1  O2-  1.0000  0.473520  0.608810  0.854020  Uiso  0.025330
    O1  O2-  1.0000  0.744100  0.608810  0.854020  Uiso  0.025330
    O1  O2-  1.0000  0.202940  0.879390  0.854020  Uiso  0.025330
    O1  O2-  1.0000  0.473520  0.879390  0.854020  Uiso  0.025330
    O1  O2-  1.0000  0.744100  0.879390  0.854020  Uiso  0.025330
    O1  O2-  1.0000  0.202940  0.067650  0.887840  Uiso  0.025330
    O1  O2-  1.0000  0.473520  0.067650  0.887840  Uiso  0.025330
    O1  O2-  1.0000  0.744100  0.067650  0.887840  Uiso  0.025330
    O1  O2-  1.0000  0.202940  0.338230  0.887840  Uiso  0.025330
    O1  O2-  1.0000  0.473520  0.338230  0.887840  Uiso  0.025330
    O1  O2-  1.0000  0.744100  0.338230  0.887840  Uiso  0.025330
    O1  O2-  1.0000  0.202940  0.608810  0.887840  Uiso  0.025330
    O1  O2-  1.0000  0.473520  0.608810  0.887840  Uiso  0.025330
    O1  O2-  1.0000  0.744100  0.608810  0.887840  Uiso  0.025330
    O1  O2-  1.0000  0.202940  0.879390  0.887840  Uiso  0.025330
    O1  O2-  1.0000  0.473520  0.879390  0.887840  Uiso  0.025330
    O1  O2-  1.0000  0.744100  0.879390  0.887840  Uiso  0.025330
    O1  O2-  1.0000  0.202940  0.067650  0.921660  Uiso  0.025330
    O1  O2-  1.0000  0.473520  0.067650  0.921660  Uiso  0.025330
    O1  O2-  1.0000  0.744100  0.067650  0.921660  Uiso  0.025330
    O1  O2-  1.0000  0.202940  0.338230  0.921660  Uiso  0.025330
    O1  O2-  1.0000  0.473520  0.338230  0.921660  Uiso  0.025330
    O1  O2-  1.0000  0.744100  0.338230  0.921660  Uiso  0.025330
    O1  O2-  1.0000  0.202940  0.608810  0.921660  Uiso  0.025330
    O1  O2-  1.0000  0.473520  0.608810  0.921660  Uiso  0.025330
    O1  O2-  1.0000  0.744100  0.608810  0.921660  Uiso  0.025330
    O1  O2-  1.0000  0.202940  0.879390  0.921660  Uiso  0.025330
    O1  O2-  1.0000  0.473520  0.879390  0.921660  Uiso  0.025330
    O1  O2-  1.0000  0.744100  0.879390  0.921660  Uiso  0.025330
    O1  O2-  1.0000  0.202940  0.067650  0.955490  Uiso  0.025330
    O1  O2-  1.0000  0.473520  0.067650  0.955490  Uiso  0.025330
    O1  O2-  1.0000  0.744100  0.067650  0.955490  Uiso  0.025330
    O1  O2-  1.0000  0.202940  0.338230  0.955490  Uiso  0.025330
    O1  O2-  1.0000  0.473520  0.338230  0.955490  Uiso  0.025330
    O1  O2-  1.0000  0.744100  0.338230  0.955490  Uiso  0.025330
    O1  O2-  1.0000  0.202940  0.608810  0.955490  Uiso  0.025330
    O1  O2-  1.0000  0.473520  0.608810  0.955490  Uiso  0.025330
    O1  O2-  1.0000  0.744100  0.608810  0.955490  Uiso  0.025330
    O1  O2-  1.0000  0.202940  0.879390  0.955490  Uiso  0.025330
    O1  O2-  1.0000  0.473520  0.879390  0.955490  Uiso  0.025330
    O1  O2-  1.0000  0.744100  0.879390  0.955490  Uiso  0.025330
    O1  O2-  1.0000  0.202940  0.067650  0.989310  Uiso  0.025330
    O1  O2-  1.0000  0.473520  0.067650  0.989310  Uiso  0.025330
    O1  O2-  1.0000  0.744100  0.067650  0.989310  Uiso  0.025330
    O1  O2-  1.0000  0.202940  0.338230  0.989310  Uiso  0.025330
    O1  O2-  1.0000  0.473520  0.338230  0.989310  Uiso  0.025330
    O1  O2-  1.0000  0.744100  0.338230  0.989310  Uiso  0.025330
    O1  O2-  1.0000  0.202940  0.608810  0.989310  Uiso  0.025330
    O1  O2-  1.0000  0.473520  0.608810  0.989310  Uiso  0.025330
    O1  O2-  1.0000  0.744100  0.608810  0.989310  Uiso  0.025330
    O1  O2-  1.0000  0.202940  0.879390  0.989310  Uiso  0.025330
    O1  O2-  1.0000  0.473520  0.879390  0.989310  Uiso  0.025330
    O1  O2-  1.0000  0.744100  0.879390  0.989310  Uiso  0.025330
    O1  O2-  1.0000  0.202940  0.202940  0.025370  Uiso  0.025330
    O1  O2-  1.0000  0.473520  0.202940  0.025370  Uiso  0.025330
    O1  O2-  1.0000  0.744100  0.202940  0.025370  Uiso  0.025330
    O1  O2-  1.0000  0.202940  0.473520  0.025370  Uiso  0.025330
    O1  O2-  1.0000  0.473520  0.473520  0.025370  Uiso  0.025330
    O1  O2-  1.0000  0.744100  0.473520  0.025370  Uiso  0.025330
    O1  O2-  1.0000  0.202940  0.744100  0.025370  Uiso  0.025330
    O1  O2-  1.0000  0.473520  0.744100  0.025370  Uiso  0.025330
    O1  O2-  1.0000  0.744100  0.744100  0.025370  Uiso  0.025330
    O1  O2-  1.0000  0.202940  0.202940  0.059190  Uiso  0.025330
    O1  O2-  1.0000  0.473520  0.202940  0.059190  Uiso  0.025330
    O1  O2-  1.0000  0.744100  0.202940  0.059190  Uiso  0.025330
    O1  O2-  1.0000  0.202940  0.473520  0.059190  Uiso  0.025330
    O1  O2-  1.0000  0.473520  0.473520  0.059190  Uiso  0.025330
    O1  O2-  1.0000  0.744100  0.473520  0.059190  Uiso  0.025330
    O1  O2-  1.0000  0.202940  0.744100  0.059190  Uiso  0.025330
    O1  O2-  1.0000  0.473520  0.744100  0.059190  Uiso  0.025330
    O1  O2-  1.0000  0.744100  0.744100  0.059190  Uiso  0.025330
    O1  O2-  1.0000  0.202940  0.202940  0.093010  Uiso  0.025330
    O1  O2-  1.0000  0.473520  0.202940  0.093010  Uiso  0.025330
    O1  O2-  1.0000  0.744100  0.202940  0.093010  Uiso  0.025330
    O1  O2-  1.0000  0.202940  0.473520  0.093010  Uiso  0.025330
    O1  O2-  1.0000  0.473520  0.473520  0.093010  Uiso  0.025330
    O1  O2-  1.0000  0.744100  0.473520  0.093010  Uiso  0.025330
    O1  O2-  1.0000  0.202940  0.744100  0.093010  Uiso  0.025330
    O1  O2-  1.0000  0.473520  0.744100  0.093010  Uiso  0.025330
    O1  O2-  1.0000  0.744100  0.744100  0.093010  Uiso  0.025330
    O1  O2-  1.0000  0.202940  0.202940  0.126830  Uiso  0.025330
    O1  O2-  1.0000  0.473520  0.202940  0.126830  Uiso  0.025330
    O1  O2-  1.0000  0.744100  0.202940  0.126830  Uiso  0.025330
    O1  O2-  1.0000  0.202940  0.473520  0.126830  Uiso  0.025330
    O1  O2-  1.0000  0.473520  0.473520  0.126830  Uiso  0.025330
    O1  O2-  1.0000  0.744100  0.473520  0.126830  Uiso  0.025330
    O1  O2-  1.0000  0.202940  0.744100  0.126830  Uiso  0.025330
    O1  O2-  1.0000  0.473520  0.744100  0.126830  Uiso  0.025330
    O1  O2-  1.0000  0.744100  0.744100  0.126830  Uiso  0.025330
    O1  O2-  1.0000  0.202940  0.202940  0.160660  Uiso  0.025330
    O1  O2-  1.0000  0.473520  0.202940  0.160660  Uiso  0.025330
    O1  O2-  1.0000  0.744100  0.202940  0.160660  Uiso  0.025330
    O1  O2-  1.0000  0.202940  0.473520  0.160660  Uiso  0.025330
    O1  O2-  1.0000  0.473520  0.473520  0.160660  Uiso  0.025330
    O1  O2-  1.0000  0.744100  0.473520  0.160660  Uiso  0.025330
    O1  O2-  1.0000  0.202940  0.744100  0.160660  Uiso  0.025330
    O1  O2-  1.0000  0.473520  0.744100  0.160660  Uiso  0.025330
    O1  O2-  1.0000  0.744100  0.744100  0.160660  Uiso  0.025330
    O1  O2-  1.0000  0.202940  0.202940  0.194480  Uiso  0.025330
    O1  O2-  1.0000  0.473520  0.202940  0.194480  Uiso  0.025330
    O1  O2-  1.0000  0.744100  0.202940  0.194480  Uiso  0.025330
    O1  O2-  1.0000  0.202940  0.473520  0.194480  Uiso  0.025330
    O1  O2-  1.0000  0.473520  0.473520  0.194480  Uiso  0.025330
    O1  O2-  1.0000  0.744100  0.473520  0.194480  Uiso  0.025330
    O1  O2-  1.0000  0.202940  0.744100  0.194480  Uiso  0.025330
    O1  O2-  1.0000  0.473520  0.744100  0.194480  Uiso  0.025330
    O1  O2-  1.0000  0.744100  0.744100  0.194480  Uiso  0.025330
    O1  O2-  1.0000  0.202940  0.202940  0.228300  Uiso  0.025330
    O1  O2-  1.0000  0.473520  0.202940  0.228300  Uiso  0.025330
    O1  O2-  1.0000  0.744100  0.202940  0.228300  Uiso  0.025330
    O1  O2-  1.0000  0.202940  0.473520  0.228300  Uiso  0.025330
    O1  O2-  1.0000  0.473520  0.473520  0.228300  Uiso  0.025330
    O1  O2-  1.0000  0.744100  0.473520  0.228300  Uiso  0.025330
    O1  O2-  1.0000  0.202940  0.744100  0.228300  Uiso  0.025330
    O1  O2-  1.0000  0.473520  0.744100  0.228300  Uiso  0.025330
    O1  O2-  1.0000  0.744100  0.744100  0.228300  Uiso  0.025330
    O1  O2-  1.0000  0.202940  0.202940  0.262120  Uiso  0.025330
    O1  O2-  1.0000  0.473520  0.202940  0.262120  Uiso  0.025330
    O1  O2-  1.0000  0.744100  0.202940  0.262120  Uiso  0.025330
    O1  O2-  1.0000  0.202940  0.473520  0.262120  Uiso  0.025330
    O1  O2-  1.0000  0.473520  0.473520  0.262120  Uiso  0.025330
    O1  O2-  1.0000  0.744100  0.473520  0.262120  Uiso  0.025330
    O1  O2-  1.0000  0.202940  0.744100  0.262120  Uiso  0.025330
    O1  O2-  1.0000  0.473520  0.744100  0.262120  Uiso  0.025330
    O1  O2-  1.0000  0.744100  0.744100  0.262120  Uiso  0.025330
    O1  O2-  1.0000  0.202940  0.202940  0.295950  Uiso  0.025330
    O1  O2-  1.0000  0.473520  0.202940  0.295950  Uiso  0.025330
    O1  O2-  1.0000  0.744100  0.202940  0.295950  Uiso  0.025330
    O1  O2-  1.0000  0.202940  0.473520  0.295950  Uiso  0.025330
    O1  O2-  1.0000  0.473520  0.473520  0.295950  Uiso  0.025330
    O1  O2-  1.0000  0.744100  0.473520  0.295950  Uiso  0.025330
    O1  O2-  1.0000  0.202940  0.744100  0.295950  Uiso  0.025330
    O1  O2-  1.0000  0.473520  0.744100  0.295950  Uiso  0.025330
    O1  O2-  1.0000  0.744100  0.744100  0.295950  Uiso  0.025330
    O1  O2-  1.0000  0.202940  0.202940  0.329770  Uiso  0.025330
    O1  O2-  1.0000  0.473520  0.202940  0.329770  Uiso  0.025330
    O1  O2-  1.0000  0.744100  0.202940  0.329770  Uiso  0.025330
    O1  O2-  1.0000  0.202940  0.473520  0.329770  Uiso  0.025330
    O1  O2-  1.0000  0.473520  0.473520  0.329770  Uiso  0.025330
    O1  O2-  1.0000  0.744100  0.473520  0.329770  Uiso  0.025330
    O1  O2-  1.0000  0.202940  0.744100  0.329770  Uiso  0.025330
    O1  O2-  1.0000  0.473520  0.744100  0.329770  Uiso  0.025330
    O1  O2-  1.0000  0.744100  0.744100  0.329770  Uiso  0.025330
    O1  O2-  1.0000  0.202940  0.202940  0.363590  Uiso  0.025330
    O1  O2-  1.0000  0.473520  0.202940  0.363590  Uiso  0.025330
    O1  O2-  1.0000  0.744100  0.202940  0.363590  Uiso  0.025330
    O1  O2-  1.0000  0.202940  0.473520  0.363590  Uiso  0.025330
    O1  O2-  1.0000  0.473520  0.473520  0.363590  Uiso  0.025330
    O1  O2-  1.0000  0.744100  0.473520  0.363590  Uiso  0.025330
    O1  O2-  1.0000  0.202940  0.744100  0.363590  Uiso  0.025330
    O1  O2-  1.0000  0.473520  0.744100  0.363590  Uiso  0.025330
    O1  O2-  1.0000  0.744100  0.744100  0.363590  Uiso  0.025330
    O1  O2-  1.0000  0.202940  0.202940  0.397410  Uiso  0.025330
    O1  O2-  1.0000  0.473520  0.202940  0.397410  Uiso  0.025330
    O1  O2-  1.0000  0.744100  0.202940  0.397410  Uiso  0.025330
    O1  O2-  1.0000  0.202940  0.473520  0.397410  Uiso  0.025330
    O1  O2-  1.0000  0.473520  0.473520  0.397410  Uiso  0.025330
    O1  O2-  1.0000  0.744100  0.473520  0.397410  Uiso  0.025330
    O1  O2-  1.0000  0.202940  0.744100  0.397410  Uiso  0.025330
    O1  O2-  1.0000  0.473520  0.744100  0.397410  Uiso  0.025330
    O1  O2-  1.0000  0.744100  0.744100  0.397410  Uiso  0.025330
    O1  O2-  1.0000  0.202940  0.202940  0.431240  Uiso  0.025330
    O1  O2-  1.0000  0.473520  0.202940  0.431240  Uiso  0.025330
    O1  O2-  1.0000  0.744100  0.202940  0.431240  Uiso  0.025330
    O1  O2-  1.0000  0.202940  0.473520  0.431240  Uiso  0.025330
    O1  O2-  1.0000  0.473520  0.473520  0.431240  Uiso  0.025330
    O1  O2-  1.0000  0.744100  0.473520  0.431240  Uiso  0.025330
    O1  O2-  1.0000  0.202940  0.744100  0.431240  Uiso  0.025330
    O1  O2-  1.0000  0.473520  0.744100  0.431240  Uiso  0.025330
    O1  O2-  1.0000  0.744100  0.744100  0.431240  Uiso  0.025330
    O1  O2-  1.0000  0.202940  0.202940  0.465060  Uiso  0.025330
    O1  O2-  1.0000  0.473520  0.202940  0.465060  Uiso  0.025330
    O1  O2-  1.0000  0.744100  0.202940  0.465060  Uiso  0.025330
    O1  O2-  1.0000  0.202940  0.473520  0.465060  Uiso  0.025330
    O1  O2-  1.0000  0.473520  0.473520  0.465060  Uiso  0.025330
    O1  O2-  1.0000  0.744100  0.473520  0.465060  Uiso  0.025330
    O1  O2-  1.0000  0.202940  0.744100  0.465060  Uiso  0.025330
    O1  O2-  1.0000  0.473520  0.744100  0.465060  Uiso  0.025330
    O1  O2-  1.0000  0.744100  0.744100  0.465060  Uiso  0.025330
    O1  O2-  1.0000  0.202940  0.202940  0.498880  Uiso  0.025330
    O1  O2-  1.0000  0.473520  0.202940  0.498880  Uiso  0.025330
    O1  O2-  1.0000  0.744100  0.202940  0.498880  Uiso  0.025330
    O1  O2-  1.0000  0.202940  0.473520  0.498880  Uiso  0.025330
    O1  O2-  1.0000  0.473520  0.473520  0.498880  Uiso  0.025330
    O1  O2-  1.0000  0.744100  0.473520  0.498880  Uiso  0.025330
    O1  O2-  1.0000  0.202940  0.744100  0.498880  Uiso  0.025330
    O1  O2-  1.0000  0.473520  0.744100  0.498880  Uiso  0.025330
    O1  O2-  1.0000  0.744100  0.744100  0.498880  Uiso  0.025330
    O1  O2-  1.0000  0.202940  0.202940  0.532700  Uiso  0.025330
    O1  O2-  1.0000  0.473520  0.202940  0.532700  Uiso  0.025330
    O1  O2-  1.0000  0.744100  0.202940  0.532700  Uiso  0.025330
    O1  O2-  1.0000  0.202940  0.473520  0.532700  Uiso  0.025330
    O1  O2-  1.0000  0.473520  0.473520  0.532700  Uiso  0.025330
    O1  O2-  1.0000  0.744100  0.473520  0.532700  Uiso  0.025330
    O1  O2-  1.0000  0.202940  0.744100  0.532700  Uiso  0.025330
    O1  O2-  1.0000  0.473520  0.744100  0.532700  Uiso  0.025330
    O1  O2-  1.0000  0.744100  0.744100  0.532700  Uiso  0.025330
    O1  O2-  1.0000  0.202940  0.202940  0.566530  Uiso  0.025330
    O1  O2-  1.0000  0.473520  0.202940  0.566530  Uiso  0.025330
    O1  O2-  1.0000  0.744100  0.202940  0.566530  Uiso  0.025330
    O1  O2-  1.0000  0.202940  0.473520  0.566530  Uiso  0.025330
    O1  O2-  1.0000  0.473520  0.473520  0.566530  Uiso  0.025330
    O1  O2-  1.0000  0.744100  0.473520  0.566530  Uiso  0.025330
    O1  O2-  1.0000  0.202940  0.744100  0.566530  Uiso  0.025330
    O1  O2-  1.0000  0.473520  0.744100  0.566530  Uiso  0.025330
    O1  O2-  1.0000  0.744100  0.744100  0.566530  Uiso  0.025330
    O1  O2-  1.0000  0.202940  0.202940  0.600350  Uiso  0.025330
    O1  O2-  1.0000  0.473520  0.202940  0.600350  Uiso  0.025330
    O1  O2-  1.0000  0.744100  0.202940  0.600350  Uiso  0.025330
    O1  O2-  1.0000  0.202940  0.473520  0.600350  Uiso  0.025330
    O1  O2-  1.0000  0.473520  0.473520  0.600350  Uiso  0.025330
    O1  O2-  1.0000  0.744100  0.473520  0.600350  Uiso  0.025330
    O1  O2-  1.0000  0.202940  0.744100  0.600350  Uiso  0.025330
    O1  O2-  1.0000  0.473520  0.744100  0.600350  Uiso  0.025330
    O1  O2-  1.0000  0.744100  0.744100  0.600350  Uiso  0.025330
    O1  O2-  1.0000  0.202940  0.202940  0.634170  Uiso  0.025330
    O1  O2-  1.0000  0.473520  0.202940  0.634170  Uiso  0.025330
    O1  O2-  1.0000  0.744100  0.202940  0.634170  Uiso  0.025330
    O1  O2-  1.0000  0.202940  0.473520  0.634170  Uiso  0.025330
    O1  O2-  1.0000  0.473520  0.473520  0.634170  Uiso  0.025330
    O1  O2-  1.0000  0.744100  0.473520  0.634170  Uiso  0.025330
    O1  O2-  1.0000  0.202940  0.744100  0.634170  Uiso  0.025330
    O1  O2-  1.0000  0.473520  0.744100  0.634170  Uiso  0.025330
    O1  O2-  1.0000  0.744100  0.744100  0.634170  Uiso  0.025330
    O1  O2-  1.0000  0.202940  0.202940  0.667990  Uiso  0.025330
    O1  O2-  1.0000  0.473520  0.202940  0.667990  Uiso  0.025330
    O1  O2-  1.0000  0.744100  0.202940  0.667990  Uiso  0.025330
    O1  O2-  1.0000  0.202940  0.473520  0.667990  Uiso  0.025330
    O1  O2-  1.0000  0.473520  0.473520  0.667990  Uiso  0.025330
    O1  O2-  1.0000  0.744100  0.473520  0.667990  Uiso  0.025330
    O1  O2-  1.0000  0.202940  0.744100  0.667990  Uiso  0.025330
    O1  O2-  1.0000  0.473520  0.744100  0.667990  Uiso  0.025330
    O1  O2-  1.0000  0.744100  0.744100  0.667990  Uiso  0.025330
    O1  O2-  1.0000  0.202940  0.202940  0.701820  Uiso  0.025330
    O1  O2-  1.0000  0.473520  0.202940  0.701820  Uiso  0.025330
    O1  O2-  1.0000  0.744100  0.202940  0.701820  Uiso  0.025330
    O1  O2-  1.0000  0.202940  0.473520  0.701820  Uiso  0.025330
    O1  O2-  1.0000  0.473520  0.473520  0.701820  Uiso  0.025330
    O1  O2-  1.0000  0.744100  0.473520  0.701820  Uiso  0.025330
    O1  O2-  1.0000  0.202940  0.744100  0.701820  Uiso  0.025330
    O1  O2-  1.0000  0.473520  0.744100  0.701820  Uiso  0.025330
    O1  O2-  1.0000  0.744100  0.744100  0.701820  Uiso  0.025330
    O1  O2-  1.0000  0.202940  0.202940  0.735640  Uiso  0.025330
    O1  O2-  1.0000  0.473520  0.202940  0.735640  Uiso  0.025330
    O1  O2-  1.0000  0.744100  0.202940  0.735640  Uiso  0.025330
    O1  O2-  1.0000  0.202940  0.473520  0.735640  Uiso  0.025330
    O1  O2-  1.0000  0.473520  0.473520  0.735640  Uiso  0.025330
    O1  O2-  1.0000  0.744100  0.473520  0.735640  Uiso  0.025330
    O1  O2-  1.0000  0.202940  0.744100  0.735640  Uiso  0.025330
    O1  O2-  1.0000  0.473520  0.744100  0.735640  Uiso  0.025330
    O1  O2-  1.0000  0.744100  0.744100  0.735640  Uiso  0.025330
    O1  O2-  1.0000  0.202940  0.202940  0.769460  Uiso  0.025330
    O1  O2-  1.0000  0.473520  0.202940  0.769460  Uiso  0.025330
    O1  O2-  1.0000  0.744100  0.202940  0.769460  Uiso  0.025330
    O1  O2-  1.0000  0.202940  0.473520  0.769460  Uiso  0.025330
    O1  O2-  1.0000  0.473520  0.473520  0.769460  Uiso  0.025330
    O1  O2-  1.0000  0.744100  0.473520  0.769460  Uiso  0.025330
    O1  O2-  1.0000  0.202940  0.744100  0.769460  Uiso  0.025330
    O1  O2-  1.0000  0.473520  0.744100  0.769460  Uiso  0.025330
    O1  O2-  1.0000  0.744100  0.744100  0.769460  Uiso  0.025330
    O1  O2-  1.0000  0.202940  0.202940  0.803280  Uiso  0.025330
    O1  O2-  1.0000  0.473520  0.202940  0.803280  Uiso  0.025330
    O1  O2-  1.0000  0.744100  0.202940  0.803280  Uiso  0.025330
    O1  O2-  1.0000  0.202940  0.473520  0.803280  Uiso  0.025330
    O1  O2-  1.0000  0.473520  0.473520  0.803280  Uiso  0.025330
    O1  O2-  1.0000  0.744100  0.473520  0.803280  Uiso  0.025330
    O1  O2-  1.0000  0.202940  0.744100  0.803280  Uiso  0.025330
    O1  O2-  1.0000  0.473520  0.744100  0.803280  Uiso  0.025330
    O1  O2-  1.0000  0.744100  0.744100  0.803280  Uiso  0.025330
    O1  O2-  1.0000  0.202940  0.202940  0.837110  Uiso  0.025330
    O1  O2-  1.0000  0.473520  0.202940  0.837110  Uiso  0.025330
    O1  O2-  1.0000  0.744100  0.202940  0.837110  Uiso  0.025330
    O1  O2-  1.0000  0.202940  0.473520  0.837110  Uiso  0.025330
    O1  O2-  1.0000  0.473520  0.473520  0.837110  Uiso  0.025330
    O1  O2-  1.0000  0.744100  0.473520  0.837110  Uiso  0.025330
    O1  O2-  1.0000  0.202940  0.744100  0.837110  Uiso  0.025330
    O1  O2-  1.0000  0.473520  0.744100  0.837110  Uiso  0.025330
    O1  O2-  1.0000  0.744100  0.744100  0.837110  Uiso  0.025330
    O1  O2-  1.0000  0.202940  0.202940  0.870930  Uiso  0.025330
    O1  O2-  1.0000  0.473520  0.202940  0.870930  Uiso  0.025330
    O1  O2-  1.0000  0.744100  0.202940  0.870930  Uiso  0.025330
    O1  O2-  1.0000  0.202940  0.473520  0.870930  Uiso  0.025330
    O1  O2-  1.0000  0.473520  0.473520  0.870930  Uiso  0.025330
    O1  O2-  1.0000  0.744100  0.473520  0.870930  Uiso  0.025330
    O1  O2-  1.0000  0.202940  0.744100  0.870930  Uiso  0.025330
    O1  O2-  1.0000  0.473520  0.744100  0.870930  Uiso  0.025330
    O1  O2-  1.0000  0.744100  0.744100  0.870930  Uiso  0.025330
    O1  O2-  1.0000  0.202940  0.202940  0.904750  Uiso  0.025330
    O1  O2-  1.0000  0.473520  0.202940  0.904750  Uiso  0.025330
    O1  O2-  1.0000  0.744100  0.202940  0.904750  Uiso  0.025330
    O1  O2-  1.0000  0.202940  0.473520  0.904750  Uiso  0.025330
    O1  O2-  1.0000  0.473520  0.473520  0.904750  Uiso  0.025330
    O1  O2-  1.0000  0.744100  0.473520  0.904750  Uiso  0.025330
    O1  O2-  1.0000  0.202940  0.744100  0.904750  Uiso  0.025330
    O1  O2-  1.0000  0.473520  0.744100  0.904750  Uiso  0.025330
    O1  O2-  1.0000  0.744100  0.744100  0.904750  Uiso  0.025330
    O1  O2-  1.0000  0.202940  0.202940  0.938570  Uiso  0.025330
    O1  O2-  1.0000  0.473520  0.202940  0.938570  Uiso  0.025330
    O1  O2-  1.0000  0.744100  0.202940  0.938570  Uiso  0.025330
    O1  O2-  1.0000  0.202940  0.473520  0.938570  Uiso  0.025330
    O1  O2-  1.0000  0.473520  0.473520  0.938570  Uiso  0.025330
    O1  O2-  1.0000  0.744100  0.473520  0.938570  Uiso  0.025330
    O1  O2-  1.0000  0.202940  0.744100  0.938570  Uiso  0.025330
    O1  O2-  1.0000  0.473520  0.744100  0.938570  Uiso  0.025330
    O1  O2-  1.0000  0.744100  0.744100  0.938570  Uiso  0.025330
    O1  O2-  1.0000  0.202940  0.202940  0.972400  Uiso  0.025330
    O1  O2-  1.0000  0.473520  0.202940  0.972400  Uiso  0.025330
    O1  O2-  1.0000  0.744100  0.202940  0.972400  Uiso  0.025330
    O1  O2-  1.0000  0.202940  0.473520  0.972400  Uiso  0.025330
    O1  O2-  1.0000  0.473520  0.473520  0.972400  Uiso  0.025330
    O1  O2-  1.0000  0.744100  0.473520  0.972400  Uiso  0.025330
    O1  O2-  1.0000  0.202940  0.744100  0.972400  Uiso  0.025330
    O1  O2-  1.0000  0.473520  0.744100  0.972400  Uiso  0.025330
    O1  O2-  1.0000  0.744100  0.744100  0.972400  Uiso  0.025330
    O1  O2-  1.0000  0.067650  0.202940  0.008460  Uiso  0.025330
    O1  O2-  1.0000  0.338230  0.202940  0.008460  Uiso  0.025330
    O1  O2-  1.0000  0.608810  0.202940  0.008460  Uiso  0.025330
    O1  O2-  1.0000  0.879390  0.202940  0.008460  Uiso  0.025330
    O1  O2-  1.0000  0.067650  0.473520  0.008460  Uiso  0.025330
    O1  O2-  1.0000  0.338230  0.473520  0.008460  Uiso  0.025330
    O1  O2-  1.0000  0.608810  0.473520  0.008460  Uiso  0.025330
    O1  O2-  1.0000  0.879390  0.473520  0.008460  Uiso  0.025330
    O1  O2-  1.0000  0.067650  0.744100  0.008460  Uiso  0.025330
    O1  O2-  1.0000  0.338230  0.744100  0.008460  Uiso  0.025330
    O1  O2-  1.0000  0.608810  0.744100  0.008460  Uiso  0.025330
    O1  O2-  1.0000  0.879390  0.744100  0.008460  Uiso  0.025330
    O1  O2-  1.0000  0.067650  0.202940  0.042280  Uiso  0.025330
    O1  O2-  1.0000  0.338230  0.202940  0.042280  Uiso  0.025330
    O1  O2-  1.0000  0.608810  0.202940  0.042280  Uiso  0.025330
    O1  O2-  1.0000  0.879390  0.202940  0.042280  Uiso  0.025330
    O1  O2-  1.0000  0.067650  0.473520  0.042280  Uiso  0.025330
    O1  O2-  1.0000  0.338230  0.473520  0.042280  Uiso  0.025330
    O1  O2-  1.0000  0.608810  0.473520  0.042280  Uiso  0.025330
    O1  O2-  1.0000  0.879390  0.473520  0.042280  Uiso  0.025330
    O1  O2-  1.0000  0.067650  0.744100  0.042280  Uiso  0.025330
    O1  O2-  1.0000  0.338230  0.744100  0.042280  Uiso  0.025330
    O1  O2-  1.0000  0.608810  0.744100  0.042280  Uiso  0.025330
    O1  O2-  1.0000  0.879390  0.744100  0.042280  Uiso  0.025330
    O1  O2-  1.0000  0.067650  0.202940  0.076100  Uiso  0.025330
    O1  O2-  1.0000  0.338230  0.202940  0.076100  Uiso  0.025330
    O1  O2-  1.0000  0.608810  0.202940  0.076100  Uiso  0.025330
    O1  O2-  1.0000  0.879390  0.202940  0.076100  Uiso  0.025330
    O1  O2-  1.0000  0.067650  0.473520  0.076100  Uiso  0.025330
    O1  O2-  1.0000  0.338230  0.473520  0.076100  Uiso  0.025330
    O1  O2-  1.0000  0.608810  0.473520  0.076100  Uiso  0.025330
    O1  O2-  1.0000  0.879390  0.473520  0.076100  Uiso  0.025330
    O1  O2-  1.0000  0.067650  0.744100  0.076100  Uiso  0.025330
    O1  O2-  1.0000  0.338230  0.744100  0.076100  Uiso  0.025330
    O1  O2-  1.0000  0.608810  0.744100  0.076100  Uiso  0.025330
    O1  O2-  1.0000  0.879390  0.744100  0.076100  Uiso  0.025330
    O1  O2-  1.0000  0.067650  0.202940  0.109920  Uiso  0.025330
    O1  O2-  1.0000  0.338230  0.202940  0.109920  Uiso  0.025330
    O1  O2-  1.0000  0.608810  0.202940  0.109920  Uiso  0.025330
    O1  O2-  1.0000  0.879390  0.202940  0.109920  Uiso  0.025330
    O1  O2-  1.0000  0.067650  0.473520  0.109920  Uiso  0.025330
    O1  O2-  1.0000  0.338230  0.473520  0.109920  Uiso  0.025330
    O1  O2-  1.0000  0.608810  0.473520  0.109920  Uiso  0.025330
    O1  O2-  1.0000  0.879390  0.473520  0.109920  Uiso  0.025330
    O1  O2-  1.0000  0.067650  0.744100  0.109920  Uiso  0.025330
    O1  O2-  1.0000  0.338230  0.744100  0.109920  Uiso  0.025330
    O1  O2-  1.0000  0.608810  0.744100  0.109920  Uiso  0.025330
    O1  O2-  1.0000  0.879390  0.744100  0.109920  Uiso  0.025330
    O1  O2-  1.0000  0.067650  0.202940  0.143750  Uiso  0.025330
    O1  O2-  1.0000  0.338230  0.202940  0.143750  Uiso  0.025330
    O1  O2-  1.0000  0.608810  0.202940  0.143750  Uiso  0.025330
    O1  O2-  1.0000  0.879390  0.202940  0.143750  Uiso  0.025330
    O1  O2-  1.0000  0.067650  0.473520  0.143750  Uiso  0.025330
    O1  O2-  1.0000  0.338230  0.473520  0.143750  Uiso  0.025330
    O1  O2-  1.0000  0.608810  0.473520  0.143750  Uiso  0.025330
    O1  O2-  1.0000  0.879390  0.473520  0.143750  Uiso  0.025330
    O1  O2-  1.0000  0.067650  0.744100  0.143750  Uiso  0.025330
    O1  O2-  1.0000  0.338230  0.744100  0.143750  Uiso  0.025330
    O1  O2-  1.0000  0.608810  0.744100  0.143750  Uiso  0.025330
    O1  O2-  1.0000  0.879390  0.744100  0.143750  Uiso  0.025330
    O1  O2-  1.0000  0.067650  0.202940  0.177570  Uiso  0.025330
    O1  O2-  1.0000  0.338230  0.202940  0.177570  Uiso  0.025330
    O1  O2-  1.0000  0.608810  0.202940  0.177570  Uiso  0.025330
    O1  O2-  1.0000  0.879390  0.202940  0.177570  Uiso  0.025330
    O1  O2-  1.0000  0.067650  0.473520  0.177570  Uiso  0.025330
    O1  O2-  1.0000  0.338230  0.473520  0.177570  Uiso  0.025330
    O1  O2-  1.0000  0.608810  0.473520  0.177570  Uiso  0.025330
    O1  O2-  1.0000  0.879390  0.473520  0.177570  Uiso  0.025330
    O1  O2-  1.0000  0.067650  0.744100  0.177570  Uiso  0.025330
    O1  O2-  1.0000  0.338230  0.744100  0.177570  Uiso  0.025330
    O1  O2-  1.0000  0.608810  0.744100  0.177570  Uiso  0.025330
    O1  O2-  1.0000  0.879390  0.744100  0.177570  Uiso  0.025330
    O1  O2-  1.0000  0.067650  0.202940  0.211390  Uiso  0.025330
    O1  O2-  1.0000  0.338230  0.202940  0.211390  Uiso  0.025330
    O1  O2-  1.0000  0.608810  0.202940  0.211390  Uiso  0.025330
    O1  O2-  1.0000  0.879390  0.202940  0.211390  Uiso  0.025330
    O1  O2-  1.0000  0.067650  0.473520  0.211390  Uiso  0.025330
    O1  O2-  1.0000  0.338230  0.473520  0.211390  Uiso  0.025330
    O1  O2-  1.0000  0.608810  0.473520  0.211390  Uiso  0.025330
    O1  O2-  1.0000  0.879390  0.473520  0.211390  Uiso  0.025330
    O1  O2-  1.0000  0.067650  0.744100  0.211390  Uiso  0.025330
    O1  O2-  1.0000  0.338230  0.744100  0.211390  Uiso  0.025330
    O1  O2-  1.0000  0.608810  0.744100  0.211390  Uiso  0.025330
    O1  O2-  1.0000  0.879390  0.744100  0.211390  Uiso  0.025330
    O1  O2-  1.0000  0.067650  0.202940  0.245210  Uiso  0.025330
    O1  O2-  1.0000  0.338230  0.202940  0.245210  Uiso  0.025330
    O1  O2-  1.0000  0.608810  0.202940  0.245210  Uiso  0.025330
    O1  O2-  1.0000  0.879390  0.202940  0.245210  Uiso  0.025330
    O1  O2-  1.0000  0.067650  0.473520  0.245210  Uiso  0.025330
    O1  O2-  1.0000  0.338230  0.473520  0.245210  Uiso  0.025330
    O1  O2-  1.0000  0.608810  0.473520  0.245210  Uiso  0.025330
    O1  O2-  1.0000  0.879390  0.473520  0.245210  Uiso  0.025330
    O1  O2-  1.0000  0.067650  0.744100  0.245210  Uiso  0.025330
    O1  O2-  1.0000  0.338230  0.744100  0.245210  Uiso  0.025330
    O1  O2-  1.0000  0.608810  0.744100  0.245210  Uiso  0.025330
    O1  O2-  1.0000  0.879390  0.744100  0.245210  Uiso  0.025330
    O1  O2-  1.0000  0.067650  0.202940  0.279040  Uiso  0.025330
    O1  O2-  1.0000  0.338230  0.202940  0.279040  Uiso  0.025330
    O1  O2-  1.0000  0.608810  0.202940  0.279040  Uiso  0.025330
    O1  O2-  1.0000  0.879390  0.202940  0.279040  Uiso  0.025330
    O1  O2-  1.0000  0.067650  0.473520  0.279040  Uiso  0.025330
    O1  O2-  1.0000  0.338230  0.473520  0.279040  Uiso  0.025330
    O1  O2-  1.0000  0.608810  0.473520  0.279040  Uiso  0.025330
    O1  O2-  1.0000  0.879390  0.473520  0.279040  Uiso  0.025330
    O1  O2-  1.0000  0.067650  0.744100  0.279040  Uiso  0.025330
    O1  O2-  1.0000  0.338230  0.744100  0.279040  Uiso  0.025330
    O1  O2-  1.0000  0.608810  0.744100  0.279040  Uiso  0.025330
    O1  O2-  1.0000  0.879390  0.744100  0.279040  Uiso  0.025330
    O1  O2-  1.0000  0.067650  0.202940  0.312860  Uiso  0.025330
    O1  O2-  1.0000  0.338230  0.202940  0.312860  Uiso  0.025330
    O1  O2-  1.0000  0.608810  0.202940  0.312860  Uiso  0.025330
    O1  O2-  1.0000  0.879390  0.202940  0.312860  Uiso  0.025330
    O1  O2-  1.0000  0.067650  0.473520  0.312860  Uiso  0.025330
    O1  O2-  1.0000  0.338230  0.473520  0.312860  Uiso  0.025330
    O1  O2-  1.0000  0.608810  0.473520  0.312860  Uiso  0.025330
    O1  O2-  1.0000  0.879390  0.473520  0.312860  Uiso  0.025330
    O1  O2-  1.0000  0.067650  0.744100  0.312860  Uiso  0.025330
    O1  O2-  1.0000  0.338230  0.744100  0.312860  Uiso  0.025330
    O1  O2-  1.0000  0.608810  0.744100  0.312860  Uiso  0.025330
    O1  O2-  1.0000  0.879390  0.744100  0.312860  Uiso  0.025330
    O1  O2-  1.0000  0.067650  0.202940  0.346680  Uiso  0.025330
    O1  O2-  1.0000  0.338230  0.202940  0.346680  Uiso  0.025330
    O1  O2-  1.0000  0.608810  0.202940  0.346680  Uiso  0.025330
    O1  O2-  1.0000  0.879390  0.202940  0.346680  Uiso  0.025330
    O1  O2-  1.0000  0.067650  0.473520  0.346680  Uiso  0.025330
    O1  O2-  1.0000  0.338230  0.473520  0.346680  Uiso  0.025330
    O1  O2-  1.0000  0.608810  0.473520  0.346680  Uiso  0.025330
    O1  O2-  1.0000  0.879390  0.473520  0.346680  Uiso  0.025330
    O1  O2-  1.0000  0.067650  0.744100  0.346680  Uiso  0.025330
    O1  O2-  1.0000  0.338230  0.744100  0.346680  Uiso  0.025330
    O1  O2-  1.0000  0.608810  0.744100  0.346680  Uiso  0.025330
    O1  O2-  1.0000  0.879390  0.744100  0.346680  Uiso  0.025330
    O1  O2-  1.0000  0.067650  0.202940  0.380500  Uiso  0.025330
    O1  O2-  1.0000  0.338230  0.202940  0.380500  Uiso  0.025330
    O1  O2-  1.0000  0.608810  0.202940  0.380500  Uiso  0.025330
    O1  O2-  1.0000  0.879390  0.202940  0.380500  Uiso  0.025330
    O1  O2-  1.0000  0.067650  0.473520  0.380500  Uiso  0.025330
    O1  O2-  1.0000  0.338230  0.473520  0.380500  Uiso  0.025330
    O1  O2-  1.0000  0.608810  0.473520  0.380500  Uiso  0.025330
    O1  O2-  1.0000  0.879390  0.473520  0.380500  Uiso  0.025330
    O1  O2-  1.0000  0.067650  0.744100  0.380500  Uiso  0.025330
    O1  O2-  1.0000  0.338230  0.744100  0.380500  Uiso  0.025330
    O1  O2-  1.0000  0.608810  0.744100  0.380500  Uiso  0.025330
    O1  O2-  1.0000  0.879390  0.744100  0.380500  Uiso  0.025330
    O1  O2-  1.0000  0.067650  0.202940  0.414330  Uiso  0.025330
    O1  O2-  1.0000  0.338230  0.202940  0.414330  Uiso  0.025330
    O1  O2-  1.0000  0.608810  0.202940  0.414330  Uiso  0.025330
    O1  O2-  1.0000  0.879390  0.202940  0.414330  Uiso  0.025330
    O1  O2-  1.0000  0.067650  0.473520  0.414330  Uiso  0.025330
    O1  O2-  1.0000  0.338230  0.473520  0.414330  Uiso  0.025330
    O1  O2-  1.0000  0.608810  0.473520  0.414330  Uiso  0.025330
    O1  O2-  1.0000  0.879390  0.473520  0.414330  Uiso  0.025330
    O1  O2-  1.0000  0.067650  0.744100  0.414330  Uiso  0.025330
    O1  O2-  1.0000  0.338230  0.744100  0.414330  Uiso  0.025330
    O1  O2-  1.0000  0.608810  0.744100  0.414330  Uiso  0.025330
    O1  O2-  1.0000  0.879390  0.744100  0.414330  Uiso  0.025330
    O1  O2-  1.0000  0.067650  0.202940  0.448150  Uiso  0.025330
    O1  O2-  1.0000  0.338230  0.202940  0.448150  Uiso  0.025330
    O1  O2-  1.0000  0.608810  0.202940  0.448150  Uiso  0.025330
    O1  O2-  1.0000  0.879390  0.202940  0.448150  Uiso  0.025330
    O1  O2-  1.0000  0.067650  0.473520  0.448150  Uiso  0.025330
    O1  O2-  1.0000  0.338230  0.473520  0.448150  Uiso  0.025330
    O1  O2-  1.0000  0.608810  0.473520  0.448150  Uiso  0.025330
    O1  O2-  1.0000  0.879390  0.473520  0.448150  Uiso  0.025330
    O1  O2-  1.0000  0.067650  0.744100  0.448150  Uiso  0.025330
    O1  O2-  1.0000  0.338230  0.744100  0.448150  Uiso  0.025330
    O1  O2-  1.0000  0.608810  0.744100  0.448150  Uiso  0.025330
    O1  O2-  1.0000  0.879390  0.744100  0.448150  Uiso  0.025330
    O1  O2-  1.0000  0.067650  0.202940  0.481970  Uiso  0.025330
    O1  O2-  1.0000  0.338230  0.202940  0.481970  Uiso  0.025330
    O1  O2-  1.0000  0.608810  0.202940  0.481970  Uiso  0.025330
    O1  O2-  1.0000  0.879390  0.202940  0.481970  Uiso  0.025330
    O1  O2-  1.0000  0.067650  0.473520  0.481970  Uiso  0.025330
    O1  O2-  1.0000  0.338230  0.473520  0.481970  Uiso  0.025330
    O1  O2-  1.0000  0.608810  0.473520  0.481970  Uiso  0.025330
    O1  O2-  1.0000  0.879390  0.473520  0.481970  Uiso  0.025330
    O1  O2-  1.0000  0.067650  0.744100  0.481970  Uiso  0.025330
    O1  O2-  1.0000  0.338230  0.744100  0.481970  Uiso  0.025330
    O1  O2-  1.0000  0.608810  0.744100  0.481970  Uiso  0.025330
    O1  O2-  1.0000  0.879390  0.744100  0.481970  Uiso  0.025330
    O1  O2-  1.0000  0.067650  0.202940  0.515790  Uiso  0.025330
    O1  O2-  1.0000  0.338230  0.202940  0.515790  Uiso  0.025330
    O1  O2-  1.0000  0.608810  0.202940  0.515790  Uiso  0.025330
    O1  O2-  1.0000  0.879390  0.202940  0.515790  Uiso  0.025330
    O1  O2-  1.0000  0.067650  0.473520  0.515790  Uiso  0.025330
    O1  O2-  1.0000  0.338230  0.473520  0.515790  Uiso  0.025330
    O1  O2-  1.0000  0.608810  0.473520  0.515790  Uiso  0.025330
    O1  O2-  1.0000  0.879390  0.473520  0.515790  Uiso  0.025330
    O1  O2-  1.0000  0.067650  0.744100  0.515790  Uiso  0.025330
    O1  O2-  1.0000  0.338230  0.744100  0.515790  Uiso  0.025330
    O1  O2-  1.0000  0.608810  0.744100  0.515790  Uiso  0.025330
    O1  O2-  1.0000  0.879390  0.744100  0.515790  Uiso  0.025330
    O1  O2-  1.0000  0.067650  0.202940  0.549620  Uiso  0.025330
    O1  O2-  1.0000  0.338230  0.202940  0.549620  Uiso  0.025330
    O1  O2-  1.0000  0.608810  0.202940  0.549620  Uiso  0.025330
    O1  O2-  1.0000  0.879390  0.202940  0.549620  Uiso  0.025330
    O1  O2-  1.0000  0.067650  0.473520  0.549620  Uiso  0.025330
    O1  O2-  1.0000  0.338230  0.473520  0.549620  Uiso  0.025330
    O1  O2-  1.0000  0.608810  0.473520  0.549620  Uiso  0.025330
    O1  O2-  1.0000  0.879390  0.473520  0.549620  Uiso  0.025330
    O1  O2-  1.0000  0.067650  0.744100  0.549620  Uiso  0.025330
    O1  O2-  1.0000  0.338230  0.744100  0.549620  Uiso  0.025330
    O1  O2-  1.0000  0.608810  0.744100  0.549620  Uiso  0.025330
    O1  O2-  1.0000  0.879390  0.744100  0.549620  Uiso  0.025330
    O1  O2-  1.0000  0.067650  0.202940  0.583440  Uiso  0.025330
    O1  O2-  1.0000  0.338230  0.202940  0.583440  Uiso  0.025330
    O1  O2-  1.0000  0.608810  0.202940  0.583440  Uiso  0.025330
    O1  O2-  1.0000  0.879390  0.202940  0.583440  Uiso  0.025330
    O1  O2-  1.0000  0.067650  0.473520  0.583440  Uiso  0.025330
    O1  O2-  1.0000  0.338230  0.473520  0.583440  Uiso  0.025330
    O1  O2-  1.0000  0.608810  0.473520  0.583440  Uiso  0.025330
    O1  O2-  1.0000  0.879390  0.473520  0.583440  Uiso  0.025330
    O1  O2-  1.0000  0.067650  0.744100  0.583440  Uiso  0.025330
    O1  O2-  1.0000  0.338230  0.744100  0.583440  Uiso  0.025330
    O1  O2-  1.0000  0.608810  0.744100  0.583440  Uiso  0.025330
    O1  O2-  1.0000  0.879390  0.744100  0.583440  Uiso  0.025330
    O1  O2-  1.0000  0.067650  0.202940  0.617260  Uiso  0.025330
    O1  O2-  1.0000  0.338230  0.202940  0.617260  Uiso  0.025330
    O1  O2-  1.0000  0.608810  0.202940  0.617260  Uiso  0.025330
    O1  O2-  1.0000  0.879390  0.202940  0.617260  Uiso  0.025330
    O1  O2-  1.0000  0.067650  0.473520  0.617260  Uiso  0.025330
    O1  O2-  1.0000  0.338230  0.473520  0.617260  Uiso  0.025330
    O1  O2-  1.0000  0.608810  0.473520  0.617260  Uiso  0.025330
    O1  O2-  1.0000  0.879390  0.473520  0.617260  Uiso  0.025330
    O1  O2-  1.0000  0.067650  0.744100  0.617260  Uiso  0.025330
    O1  O2-  1.0000  0.338230  0.744100  0.617260  Uiso  0.025330
    O1  O2-  1.0000  0.608810  0.744100  0.617260  Uiso  0.025330
    O1  O2-  1.0000  0.879390  0.744100  0.617260  Uiso  0.025330
    O1  O2-  1.0000  0.067650  0.202940  0.651080  Uiso  0.025330
    O1  O2-  1.0000  0.338230  0.202940  0.651080  Uiso  0.025330
    O1  O2-  1.0000  0.608810  0.202940  0.651080  Uiso  0.025330
    O1  O2-  1.0000  0.879390  0.202940  0.651080  Uiso  0.025330
    O1  O2-  1.0000  0.067650  0.473520  0.651080  Uiso  0.025330
    O1  O2-  1.0000  0.338230  0.473520  0.651080  Uiso  0.025330
    O1  O2-  1.0000  0.608810  0.473520  0.651080  Uiso  0.025330
    O1  O2-  1.0000  0.879390  0.473520  0.651080  Uiso  0.025330
    O1  O2-  1.0000  0.067650  0.744100  0.651080  Uiso  0.025330
    O1  O2-  1.0000  0.338230  0.744100  0.651080  Uiso  0.025330
    O1  O2-  1.0000  0.608810  0.744100  0.651080  Uiso  0.025330
    O1  O2-  1.0000  0.879390  0.744100  0.651080  Uiso  0.025330
    O1  O2-  1.0000  0.067650  0.202940  0.684910  Uiso  0.025330
    O1  O2-  1.0000  0.338230  0.202940  0.684910  Uiso  0.025330
    O1  O2-  1.0000  0.608810  0.202940  0.684910  Uiso  0.025330
    O1  O2-  1.0000  0.879390  0.202940  0.684910  Uiso  0.025330
    O1  O2-  1.0000  0.067650  0.473520  0.684910  Uiso  0.025330
    O1  O2-  1.0000  0.338230  0.473520  0.684910  Uiso  0.025330
    O1  O2-  1.0000  0.608810  0.473520  0.684910  Uiso  0.025330
    O1  O2-  1.0000  0.879390  0.473520  0.684910  Uiso  0.025330
    O1  O2-  1.0000  0.067650  0.744100  0.684910  Uiso  0.025330
    O1  O2-  1.0000  0.338230  0.744100  0.684910  Uiso  0.025330
    O1  O2-  1.0000  0.608810  0.744100  0.684910  Uiso  0.025330
    O1  O2-  1.0000  0.879390  0.744100  0.684910  Uiso  0.025330
    O1  O2-  1.0000  0.067650  0.202940  0.718730  Uiso  0.025330
    O1  O2-  1.0000  0.338230  0.202940  0.718730  Uiso  0.025330
    O1  O2-  1.0000  0.608810  0.202940  0.718730  Uiso  0.025330
    O1  O2-  1.0000  0.879390  0.202940  0.718730  Uiso  0.025330
    O1  O2-  1.0000  0.067650  0.473520  0.718730  Uiso  0.025330
    O1  O2-  1.0000  0.338230  0.473520  0.718730  Uiso  0.025330
    O1  O2-  1.0000  0.608810  0.473520  0.718730  Uiso  0.025330
    O1  O2-  1.0000  0.879390  0.473520  0.718730  Uiso  0.025330
    O1  O2-  1.0000  0.067650  0.744100  0.718730  Uiso  0.025330
    O1  O2-  1.0000  0.338230  0.744100  0.718730  Uiso  0.025330
    O1  O2-  1.0000  0.608810  0.744100  0.718730  Uiso  0.025330
    O1  O2-  1.0000  0.879390  0.744100  0.718730  Uiso  0.025330
    O1  O2-  1.0000  0.067650  0.202940  0.752550  Uiso  0.025330
    O1  O2-  1.0000  0.338230  0.202940  0.752550  Uiso  0.025330
    O1  O2-  1.0000  0.608810  0.202940  0.752550  Uiso  0.025330
    O1  O2-  1.0000  0.879390  0.202940  0.752550  Uiso  0.025330
    O1  O2-  1.0000  0.067650  0.473520  0.752550  Uiso  0.025330
    O1  O2-  1.0000  0.338230  0.473520  0.752550  Uiso  0.025330
    O1  O2-  1.0000  0.608810  0.473520  0.752550  Uiso  0.025330
    O1  O2-  1.0000  0.879390  0.473520  0.752550  Uiso  0.025330
    O1  O2-  1.0000  0.067650  0.744100  0.752550  Uiso  0.025330
    O1  O2-  1.0000  0.338230  0.744100  0.752550  Uiso  0.025330
    O1  O2-  1.0000  0.608810  0.744100  0.752550  Uiso  0.025330
    O1  O2-  1.0000  0.879390  0.744100  0.752550  Uiso  0.025330
    O1  O2-  1.0000  0.067650  0.202940  0.786370  Uiso  0.025330
    O1  O2-  1.0000  0.338230  0.202940  0.786370  Uiso  0.025330
    O1  O2-  1.0000  0.608810  0.202940  0.786370  Uiso  0.025330
    O1  O2-  1.0000  0.879390  0.202940  0.786370  Uiso  0.025330
    O1  O2-  1.0000  0.067650  0.473520  0.786370  Uiso  0.025330
    O1  O2-  1.0000  0.338230  0.473520  0.786370  Uiso  0.025330
    O1  O2-  1.0000  0.608810  0.473520  0.786370  Uiso  0.025330
    O1  O2-  1.0000  0.879390  0.473520  0.786370  Uiso  0.025330
    O1  O2-  1.0000  0.067650  0.744100  0.786370  Uiso  0.025330
    O1  O2-  1.0000  0.338230  0.744100  0.786370  Uiso  0.025330
    O1  O2-  1.0000  0.608810  0.744100  0.786370  Uiso  0.025330
    O1  O2-  1.0000  0.879390  0.744100  0.786370  Uiso  0.025330
    O1  O2-  1.0000  0.067650  0.202940  0.820200  Uiso  0.025330
    O1  O2-  1.0000  0.338230  0.202940  0.820200  Uiso  0.025330
    O1  O2-  1.0000  0.608810  0.202940  0.820200  Uiso  0.025330
    O1  O2-  1.0000  0.879390  0.202940  0.820200  Uiso  0.025330
    O1  O2-  1.0000  0.067650  0.473520  0.820200  Uiso  0.025330
    O1  O2-  1.0000  0.338230  0.473520  0.820200  Uiso  0.025330
    O1  O2-  1.0000  0.608810  0.473520  0.820200  Uiso  0.025330
    O1  O2-  1.0000  0.879390  0.473520  0.820200  Uiso  0.025330
    O1  O2-  1.0000  0.067650  0.744100  0.820200  Uiso  0.025330
    O1  O2-  1.0000  0.338230  0.744100  0.820200  Uiso  0.025330
    O1  O2-  1.0000  0.608810  0.744100  0.820200  Uiso  0.025330
    O1  O2-  1.0000  0.879390  0.744100  0.820200  Uiso  0.025330
    O1  O2-  1.0000  0.067650  0.202940  0.854020  Uiso  0.025330
    O1  O2-  1.0000  0.338230  0.202940  0.854020  Uiso  0.025330
    O1  O2-  1.0000  0.608810  0.202940  0.854020  Uiso  0.025330
    O1  O2-  1.0000  0.879390  0.202940  0.854020  Uiso  0.025330
    O1  O2-  1.0000  0.067650  0.473520  0.854020  Uiso  0.025330
    O1  O2-  1.0000  0.338230  0.473520  0.854020  Uiso  0.025330
    O1  O2-  1.0000  0.608810  0.473520  0.854020  Uiso  0.025330
    O1  O2-  1.0000  0.879390  0.473520  0.854020  Uiso  0.025330
    O1  O2-  1.0000  0.067650  0.744100  0.854020  Uiso  0.025330
    O1  O2-  1.0000  0.338230  0.744100  0.854020  Uiso  0.025330
    O1  O2-  1.0000  0.608810  0.744100  0.854020  Uiso  0.025330
    O1  O2-  1.0000  0.879390  0.744100  0.854020  Uiso  0.025330
    O1  O2-  1.0000  0.067650  0.202940  0.887840  Uiso  0.025330
    O1  O2-  1.0000  0.338230  0.202940  0.887840  Uiso  0.025330
    O1  O2-  1.0000  0.608810  0.202940  0.887840  Uiso  0.025330
    O1  O2-  1.0000  0.879390  0.202940  0.887840  Uiso  0.025330
    O1  O2-  1.0000  0.067650  0.473520  0.887840  Uiso  0.025330
    O1  O2-  1.0000  0.338230  0.473520  0.887840  Uiso  0.025330
    O1  O2-  1.0000  0.608810  0.473520  0.887840  Uiso  0.025330
    O1  O2-  1.0000  0.879390  0.473520  0.887840  Uiso  0.025330
    O1  O2-  1.0000  0.067650  0.744100  0.887840  Uiso  0.025330
    O1  O2-  1.0000  0.338230  0.744100  0.887840  Uiso  0.025330
    O1  O2-  1.0000  0.608810  0.744100  0.887840  Uiso  0.025330
    O1  O2-  1.0000  0.879390  0.744100  0.887840  Uiso  0.025330
    O1  O2-  1.0000  0.067650  0.202940  0.921660  Uiso  0.025330
    O1  O2-  1.0000  0.338230  0.202940  0.921660  Uiso  0.025330
    O1  O2-  1.0000  0.608810  0.202940  0.921660  Uiso  0.025330
    O1  O2-  1.0000  0.879390  0.202940  0.921660  Uiso  0.025330
    O1  O2-  1.0000  0.067650  0.473520  0.921660  Uiso  0.025330
    O1  O2-  1.0000  0.338230  0.473520  0.921660  Uiso  0.025330
    O1  O2-  1.0000  0.608810  0.473520  0.921660  Uiso  0.025330
    O1  O2-  1.0000  0.879390  0.473520  0.921660  Uiso  0.025330
    O1  O2-  1.0000  0.067650  0.744100  0.921660  Uiso  0.025330
    O1  O2-  1.0000  0.338230  0.744100  0.921660  Uiso  0.025330
    O1  O2-  1.0000  0.608810  0.744100  0.921660  Uiso  0.025330
    O1  O2-  1.0000  0.879390  0.744100  0.921660  Uiso  0.025330
    O1  O2-  1.0000  0.067650  0.202940  0.955490  Uiso  0.025330
    O1  O2-  1.0000  0.338230  0.202940  0.955490  Uiso  0.025330
    O1  O2-  1.0000  0.608810  0.202940  0.955490  Uiso  0.025330
    O1  O2-  1.0000  0.879390  0.202940  0.955490  Uiso  0.025330
    O1  O2-  1.0000  0.067650  0.473520  0.955490  Uiso  0.025330
    O1  O2-  1.0000  0.338230  0.473520  0.955490  Uiso  0.025330
    O1  O2-  1.0000  0.608810  0.473520  0.955490  Uiso  0.025330
    O1  O2-  1.0000  0.879390  0.473520  0.955490  Uiso  0.025330
    O1  O2-  1.0000  0.067650  0.744100  0.955490  Uiso  0.025330
    O1  O2-  1.0000  0.338230  0.744100  0.955490  Uiso  0.025330
    O1  O2-  1.0000  0.608810  0.744100  0.955490  Uiso  0.025330
    O1  O2-  1.0000  0.879390  0.744100  0.955490  Uiso  0.025330
    O1  O2-  1.0000  0.067650  0.202940  0.989310  Uiso  0.025330
    O1  O2-  1.0000  0.338230  0.202940  0.989310  Uiso  0.025330
    O1  O2-  1.0000  0.608810  0.202940  0.989310  Uiso  0.025330
    O1  O2-  1.0000  0.879390  0.202940  0.989310  Uiso  0.025330
    O1  O2-  1.0000  0.067650  0.473520  0.989310  Uiso  0.025330
    O1  O2-  1.0000  0.338230  0.473520  0.989310  Uiso  0.025330
    O1  O2-  1.0000  0.608810  0.473520  0.989310  Uiso  0.025330
    O1  O2-  1.0000  0.879390  0.473520  0.989310  Uiso  0.025330
    O1  O2-  1.0000  0.067650  0.744100  0.989310  Uiso  0.025330
    O1  O2-  1.0000  0.338230  0.744100  0.989310  Uiso  0.025330
    O1  O2-  1.0000  0.608810  0.744100  0.989310  Uiso  0.025330
    O1  O2-  1.0000  0.879390  0.744100  0.989310  Uiso  0.025330
    O1  O2-  1.0000  0.202940  0.202940  0.008460  Uiso  0.025330
    O1  O2-  1.0000  0.473520  0.202940  0.008460  Uiso  0.025330
    O1  O2-  1.0000  0.744100  0.202940  0.008460  Uiso  0.025330
    O1  O2-  1.0000  0.202940  0.473520  0.008460  Uiso  0.025330
    O1  O2-  1.0000  0.473520  0.473520  0.008460  Uiso  0.025330
    O1  O2-  1.0000  0.744100  0.473520  0.008460  Uiso  0.025330
    O1  O2-  1.0000  0.202940  0.744100  0.008460  Uiso  0.025330
    O1  O2-  1.0000  0.473520  0.744100  0.008460  Uiso  0.025330
    O1  O2-  1.0000  0.744100  0.744100  0.008460  Uiso  0.025330
    O1  O2-  1.0000  0.202940  0.202940  0.042280  Uiso  0.025330
    O1  O2-  1.0000  0.473520  0.202940  0.042280  Uiso  0.025330
    O1  O2-  1.0000  0.744100  0.202940  0.042280  Uiso  0.025330
    O1  O2-  1.0000  0.202940  0.473520  0.042280  Uiso  0.025330
    O1  O2-  1.0000  0.473520  0.473520  0.042280  Uiso  0.025330
    O1  O2-  1.0000  0.744100  0.473520  0.042280  Uiso  0.025330
    O1  O2-  1.0000  0.202940  0.744100  0.042280  Uiso  0.025330
    O1  O2-  1.0000  0.473520  0.744100  0.042280  Uiso  0.025330
    O1  O2-  1.0000  0.744100  0.744100  0.042280  Uiso  0.025330
    O1  O2-  1.0000  0.202940  0.202940  0.076100  Uiso  0.025330
    O1  O2-  1.0000  0.473520  0.202940  0.076100  Uiso  0.025330
    O1  O2-  1.0000  0.744100  0.202940  0.076100  Uiso  0.025330
    O1  O2-  1.0000  0.202940  0.473520  0.076100  Uiso  0.025330
    O1  O2-  1.0000  0.473520  0.473520  0.076100  Uiso  0.025330
    O1  O2-  1.0000  0.744100  0.473520  0.076100  Uiso  0.025330
    O1  O2-  1.0000  0.202940  0.744100  0.076100  Uiso  0.025330
    O1  O2-  1.0000  0.473520  0.744100  0.076100  Uiso  0.025330
    O1  O2-  1.0000  0.744100  0.744100  0.076100  Uiso  0.025330
    O1  O2-  1.0000  0.202940  0.202940  0.109920  Uiso  0.025330
    O1  O2-  1.0000  0.473520  0.202940  0.109920  Uiso  0.025330
    O1  O2-  1.0000  0.744100  0.202940  0.109920  Uiso  0.025330
    O1  O2-  1.0000  0.202940  0.473520  0.109920  Uiso  0.025330
    O1  O2-  1.0000  0.473520  0.473520  0.109920  Uiso  0.025330
    O1  O2-  1.0000  0.744100  0.473520  0.109920  Uiso  0.025330
    O1  O2-  1.0000  0.202940  0.744100  0.109920  Uiso  0.025330
    O1  O2-  1.0000  0.473520  0.744100  0.109920  Uiso  0.025330
    O1  O2-  1.0000  0.744100  0.744100  0.109920  Uiso  0.025330
    O1  O2-  1.0000  0.202940  0.202940  0.143750  Uiso  0.025330
    O1  O2-  1.0000  0.473520  0.202940  0.143750  Uiso  0.025330
    O1  O2-  1.0000  0.744100  0.202940  0.143750  Uiso  0.025330
    O1  O2-  1.0000  0.202940  0.473520  0.143750  Uiso  0.025330
    O1  O2-  1.0000  0.473520  0.473520  0.143750  Uiso  0.025330
    O1  O2-  1.0000  0.744100  0.473520  0.143750  Uiso  0.025330
    O1  O2-  1.0000  0.202940  0.744100  0.143750  Uiso  0.025330
    O1  O2-  1.0000  0.473520  0.744100  0.143750  Uiso  0.025330
    O1  O2-  1.0000  0.744100  0.744100  0.143750  Uiso  0.025330
    O1  O2-  1.0000  0.202940  0.202940  0.177570  Uiso  0.025330
    O1  O2-  1.0000  0.473520  0.202940  0.177570  Uiso  0.025330
    O1  O2-  1.0000  0.744100  0.202940  0.177570  Uiso  0.025330
    O1  O2-  1.0000  0.202940  0.473520  0.177570  Uiso  0.025330
    O1  O2-  1.0000  0.473520  0.473520  0.177570  Uiso  0.025330
    O1  O2-  1.0000  0.744100  0.473520  0.177570  Uiso  0.025330
    O1  O2-  1.0000  0.202940  0.744100  0.177570  Uiso  0.025330
    O1  O2-  1.0000  0.473520  0.744100  0.177570  Uiso  0.025330
    O1  O2-  1.0000  0.744100  0.744100  0.177570  Uiso  0.025330
    O1  O2-  1.0000  0.202940  0.202940  0.211390  Uiso  0.025330
    O1  O2-  1.0000  0.473520  0.202940  0.211390  Uiso  0.025330
    O1  O2-  1.0000  0.744100  0.202940  0.211390  Uiso  0.025330
    O1  O2-  1.0000  0.202940  0.473520  0.211390  Uiso  0.025330
    O1  O2-  1.0000  0.473520  0.473520  0.211390  Uiso  0.025330
    O1  O2-  1.0000  0.744100  0.473520  0.211390  Uiso  0.025330
    O1  O2-  1.0000  0.202940  0.744100  0.211390  Uiso  0.025330
    O1  O2-  1.0000  0.473520  0.744100  0.211390  Uiso  0.025330
    O1  O2-  1.0000  0.744100  0.744100  0.211390  Uiso  0.025330
    O1  O2-  1.0000  0.202940  0.202940  0.245210  Uiso  0.025330
    O1  O2-  1.0000  0.473520  0.202940  0.245210  Uiso  0.025330
    O1  O2-  1.0000  0.744100  0.202940  0.245210  Uiso  0.025330
    O1  O2-  1.0000  0.202940  0.473520  0.245210  Uiso  0.025330
    O1  O2-  1.0000  0.473520  0.473520  0.245210  Uiso  0.025330
    O1  O2-  1.0000  0.744100  0.473520  0.245210  Uiso  0.025330
    O1  O2-  1.0000  0.202940  0.744100  0.245210  Uiso  0.025330
    O1  O2-  1.0000  0.473520  0.744100  0.245210  Uiso  0.025330
    O1  O2-  1.0000  0.744100  0.744100  0.245210  Uiso  0.025330
    O1  O2-  1.0000  0.202940  0.202940  0.279040  Uiso  0.025330
    O1  O2-  1.0000  0.473520  0.202940  0.279040  Uiso  0.025330
    O1  O2-  1.0000  0.744100  0.202940  0.279040  Uiso  0.025330
    O1  O2-  1.0000  0.202940  0.473520  0.279040  Uiso  0.025330
    O1  O2-  1.0000  0.473520  0.473520  0.279040  Uiso  0.025330
    O1  O2-  1.0000  0.744100  0.473520  0.279040  Uiso  0.025330
    O1  O2-  1.0000  0.202940  0.744100  0.279040  Uiso  0.025330
    O1  O2-  1.0000  0.473520  0.744100  0.279040  Uiso  0.025330
    O1  O2-  1.0000  0.744100  0.744100  0.279040  Uiso  0.025330
    O1  O2-  1.0000  0.202940  0.202940  0.312860  Uiso  0.025330
    O1  O2-  1.0000  0.473520  0.202940  0.312860  Uiso  0.025330
    O1  O2-  1.0000  0.744100  0.202940  0.312860  Uiso  0.025330
    O1  O2-  1.0000  0.202940  0.473520  0.312860  Uiso  0.025330
    O1  O2-  1.0000  0.473520  0.473520  0.312860  Uiso  0.025330
    O1  O2-  1.0000  0.744100  0.473520  0.312860  Uiso  0.025330
    O1  O2-  1.0000  0.202940  0.744100  0.312860  Uiso  0.025330
    O1  O2-  1.0000  0.473520  0.744100  0.312860  Uiso  0.025330
    O1  O2-  1.0000  0.744100  0.744100  0.312860  Uiso  0.025330
    O1  O2-  1.0000  0.202940  0.202940  0.346680  Uiso  0.025330
    O1  O2-  1.0000  0.473520  0.202940  0.346680  Uiso  0.025330
    O1  O2-  1.0000  0.744100  0.202940  0.346680  Uiso  0.025330
    O1  O2-  1.0000  0.202940  0.473520  0.346680  Uiso  0.025330
    O1  O2-  1.0000  0.473520  0.473520  0.346680  Uiso  0.025330
    O1  O2-  1.0000  0.744100  0.473520  0.346680  Uiso  0.025330
    O1  O2-  1.0000  0.202940  0.744100  0.346680  Uiso  0.025330
    O1  O2-  1.0000  0.473520  0.744100  0.346680  Uiso  0.025330
    O1  O2-  1.0000  0.744100  0.744100  0.346680  Uiso  0.025330
    O1  O2-  1.0000  0.202940  0.202940  0.380500  Uiso  0.025330
    O1  O2-  1.0000  0.473520  0.202940  0.380500  Uiso  0.025330
    O1  O2-  1.0000  0.744100  0.202940  0.380500  Uiso  0.025330
    O1  O2-  1.0000  0.202940  0.473520  0.380500  Uiso  0.025330
    O1  O2-  1.0000  0.473520  0.473520  0.380500  Uiso  0.025330
    O1  O2-  1.0000  0.744100  0.473520  0.380500  Uiso  0.025330
    O1  O2-  1.0000  0.202940  0.744100  0.380500  Uiso  0.025330
    O1  O2-  1.0000  0.473520  0.744100  0.380500  Uiso  0.025330
    O1  O2-  1.0000  0.744100  0.744100  0.380500  Uiso  0.025330
    O1  O2-  1.0000  0.202940  0.202940  0.414330  Uiso  0.025330
    O1  O2-  1.0000  0.473520  0.202940  0.414330  Uiso  0.025330
    O1  O2-  1.0000  0.744100  0.202940  0.414330  Uiso  0.025330
    O1  O2-  1.0000  0.202940  0.473520  0.414330  Uiso  0.025330
    O1  O2-  1.0000  0.473520  0.473520  0.414330  Uiso  0.025330
    O1  O2-  1.0000  0.744100  0.473520  0.414330  Uiso  0.025330
    O1  O2-  1.0000  0.202940  0.744100  0.414330  Uiso  0.025330
    O1  O2-  1.0000  0.473520  0.744100  0.414330  Uiso  0.025330
    O1  O2-  1.0000  0.744100  0.744100  0.414330  Uiso  0.025330
    O1  O2-  1.0000  0.202940  0.202940  0.448150  Uiso  0.025330
    O1  O2-  1.0000  0.473520  0.202940  0.448150  Uiso  0.025330
    O1  O2-  1.0000  0.744100  0.202940  0.448150  Uiso  0.025330
    O1  O2-  1.0000  0.202940  0.473520  0.448150  Uiso  0.025330
    O1  O2-  1.0000  0.473520  0.473520  0.448150  Uiso  0.025330
    O1  O2-  1.0000  0.744100  0.473520  0.448150  Uiso  0.025330
    O1  O2-  1.0000  0.202940  0.744100  0.448150  Uiso  0.025330
    O1  O2-  1.0000  0.473520  0.744100  0.448150  Uiso  0.025330
    O1  O2-  1.0000  0.744100  0.744100  0.448150  Uiso  0.025330
    O1  O2-  1.0000  0.202940  0.202940  0.481970  Uiso  0.025330
    O1  O2-  1.0000  0.473520  0.202940  0.481970  Uiso  0.025330
    O1  O2-  1.0000  0.744100  0.202940  0.481970  Uiso  0.025330
    O1  O2-  1.0000  0.202940  0.473520  0.481970  Uiso  0.025330
    O1  O2-  1.0000  0.473520  0.473520  0.481970  Uiso  0.025330
    O1  O2-  1.0000  0.744100  0.473520  0.481970  Uiso  0.025330
    O1  O2-  1.0000  0.202940  0.744100  0.481970  Uiso  0.025330
    O1  O2-  1.0000  0.473520  0.744100  0.481970  Uiso  0.025330
    O1  O2-  1.0000  0.744100  0.744100  0.481970  Uiso  0.025330
    O1  O2-  1.0000  0.202940  0.202940  0.515790  Uiso  0.025330
    O1  O2-  1.0000  0.473520  0.202940  0.515790  Uiso  0.025330
    O1  O2-  1.0000  0.744100  0.202940  0.515790  Uiso  0.025330
    O1  O2-  1.0000  0.202940  0.473520  0.515790  Uiso  0.025330
    O1  O2-  1.0000  0.473520  0.473520  0.515790  Uiso  0.025330
    O1  O2-  1.0000  0.744100  0.473520  0.515790  Uiso  0.025330
    O1  O2-  1.0000  0.202940  0.744100  0.515790  Uiso  0.025330
    O1  O2-  1.0000  0.473520  0.744100  0.515790  Uiso  0.025330
    O1  O2-  1.0000  0.744100  0.744100  0.515790  Uiso  0.025330
    O1  O2-  1.0000  0.202940  0.202940  0.549620  Uiso  0.025330
    O1  O2-  1.0000  0.473520  0.202940  0.549620  Uiso  0.025330
    O1  O2-  1.0000  0.744100  0.202940  0.549620  Uiso  0.025330
    O1  O2-  1.0000  0.202940  0.473520  0.549620  Uiso  0.025330
    O1  O2-  1.0000  0.473520  0.473520  0.549620  Uiso  0.025330
    O1  O2-  1.0000  0.744100  0.473520  0.549620  Uiso  0.025330
    O1  O2-  1.0000  0.202940  0.744100  0.549620  Uiso  0.025330
    O1  O2-  1.0000  0.473520  0.744100  0.549620  Uiso  0.025330
    O1  O2-  1.0000  0.744100  0.744100  0.549620  Uiso  0.025330
    O1  O2-  1.0000  0.202940  0.202940  0.583440  Uiso  0.025330
    O1  O2-  1.0000  0.473520  0.202940  0.583440  Uiso  0.025330
    O1  O2-  1.0000  0.744100  0.202940  0.583440  Uiso  0.025330
    O1  O2-  1.0000  0.202940  0.473520  0.583440  Uiso  0.025330
    O1  O2-  1.0000  0.473520  0.473520  0.583440  Uiso  0.025330
    O1  O2-  1.0000  0.744100  0.473520  0.583440  Uiso  0.025330
    O1  O2-  1.0000  0.202940  0.744100  0.583440  Uiso  0.025330
    O1  O2-  1.0000  0.473520  0.744100  0.583440  Uiso  0.025330
    O1  O2-  1.0000  0.744100  0.744100  0.583440  Uiso  0.025330
    O1  O2-  1.0000  0.202940  0.202940  0.617260  Uiso  0.025330
    O1  O2-  1.0000  0.473520  0.202940  0.617260  Uiso  0.025330
    O1  O2-  1.0000  0.744100  0.202940  0.617260  Uiso  0.025330
    O1  O2-  1.0000  0.202940  0.473520  0.617260  Uiso  0.025330
    O1  O2-  1.0000  0.473520  0.473520  0.617260  Uiso  0.025330
    O1  O2-  1.0000  0.744100  0.473520  0.617260  Uiso  0.025330
    O1  O2-  1.0000  0.202940  0.744100  0.617260  Uiso  0.025330
    O1  O2-  1.0000  0.473520  0.744100  0.617260  Uiso  0.025330
    O1  O2-  1.0000  0.744100  0.744100  0.617260  Uiso  0.025330
    O1  O2-  1.0000  0.202940  0.202940  0.651080  Uiso  0.025330
    O1  O2-  1.0000  0.473520  0.202940  0.651080  Uiso  0.025330
    O1  O2-  1.0000  0.744100  0.202940  0.651080  Uiso  0.025330
    O1  O2-  1.0000  0.202940  0.473520  0.651080  Uiso  0.025330
    O1  O2-  1.0000  0.473520  0.473520  0.651080  Uiso  0.025330
    O1  O2-  1.0000  0.744100  0.473520  0.651080  Uiso  0.025330
    O1  O2-  1.0000  0.202940  0.744100  0.651080  Uiso  0.025330
    O1  O2-  1.0000  0.473520  0.744100  0.651080  Uiso  0.025330
    O1  O2-  1.0000  0.744100  0.744100  0.651080  Uiso  0.025330
    O1  O2-  1.0000  0.202940  0.202940  0.684910  Uiso  0.025330
    O1  O2-  1.0000  0.473520  0.202940  0.684910  Uiso  0.025330
    O1  O2-  1.0000  0.744100  0.202940  0.684910  Uiso  0.025330
    O1  O2-  1.0000  0.202940  0.473520  0.684910  Uiso  0.025330
    O1  O2-  1.0000  0.473520  0.473520  0.684910  Uiso  0.025330
    O1  O2-  1.0000  0.744100  0.473520  0.684910  Uiso  0.025330
    O1  O2-  1.0000  0.202940  0.744100  0.684910  Uiso  0.025330
    O1  O2-  1.0000  0.473520  0.744100  0.684910  Uiso  0.025330
    O1  O2-  1.0000  0.744100  0.744100  0.684910  Uiso  0.025330
    O1  O2-  1.0000  0.202940  0.202940  0.718730  Uiso  0.025330
    O1  O2-  1.0000  0.473520  0.202940  0.718730  Uiso  0.025330
    O1  O2-  1.0000  0.744100  0.202940  0.718730  Uiso  0.025330
    O1  O2-  1.0000  0.202940  0.473520  0.718730  Uiso  0.025330
    O1  O2-  1.0000  0.473520  0.473520  0.718730  Uiso  0.025330
    O1  O2-  1.0000  0.744100  0.473520  0.718730  Uiso  0.025330
    O1  O2-  1.0000  0.202940  0.744100  0.718730  Uiso  0.025330
    O1  O2-  1.0000  0.473520  0.744100  0.718730  Uiso  0.025330
    O1  O2-  1.0000  0.744100  0.744100  0.718730  Uiso  0.025330
    O1  O2-  1.0000  0.202940  0.202940  0.752550  Uiso  0.025330
    O1  O2-  1.0000  0.473520  0.202940  0.752550  Uiso  0.025330
    O1  O2-  1.0000  0.744100  0.202940  0.752550  Uiso  0.025330
    O1  O2-  1.0000  0.202940  0.473520  0.752550  Uiso  0.025330
    O1  O2-  1.0000  0.473520  0.473520  0.752550  Uiso  0.025330
    O1  O2-  1.0000  0.744100  0.473520  0.752550  Uiso  0.025330
    O1  O2-  1.0000  0.202940  0.744100  0.752550  Uiso  0.025330
    O1  O2-  1.0000  0.473520  0.744100  0.752550  Uiso  0.025330
    O1  O2-  1.0000  0.744100  0.744100  0.752550  Uiso  0.025330
    O1  O2-  1.0000  0.202940  0.202940  0.786370  Uiso  0.025330
    O1  O2-  1.0000  0.473520  0.202940  0.786370  Uiso  0.025330
    O1  O2-  1.0000  0.744100  0.202940  0.786370  Uiso  0.025330
    O1  O2-  1.0000  0.202940  0.473520  0.786370  Uiso  0.025330
    O1  O2-  1.0000  0.473520  0.473520  0.786370  Uiso  0.025330
    O1  O2-  1.0000  0.744100  0.473520  0.786370  Uiso  0.025330
    O1  O2-  1.0000  0.202940  0.744100  0.786370  Uiso  0.025330
    O1  O2-  1.0000  0.473520  0.744100  0.786370  Uiso  0.025330
    O1  O2-  1.0000  0.744100  0.744100  0.786370  Uiso  0.025330
    O1  O2-  1.0000  0.202940  0.202940  0.820200  Uiso  0.025330
    O1  O2-  1.0000  0.473520  0.202940  0.820200  Uiso  0.025330
    O1  O2-  1.0000  0.744100  0.202940  0.820200  Uiso  0.025330
    O1  O2-  1.0000  0.202940  0.473520  0.820200  Uiso  0.025330
    O1  O2-  1.0000  0.473520  0.473520  0.820200  Uiso  0.025330
    O1  O2-  1.0000  0.744100  0.473520  0.820200  Uiso  0.025330
    O1  O2-  1.0000  0.202940  0.744100  0.820200  Uiso  0.025330
    O1  O2-  1.0000  0.473520  0.744100  0.820200  Uiso  0.025330
    O1  O2-  1.0000  0.744100  0.744100  0.820200  Uiso  0.025330
    O1  O2-  1.0000  0.202940  0.202940  0.854020  Uiso  0.025330
    O1  O2-  1.0000  0.473520  0.202940  0.854020  Uiso  0.025330
    O1  O2-  1.0000  0.744100  0.202940  0.854020  Uiso  0.025330
    O1  O2-  1.0000  0.202940  0.473520  0.854020  Uiso  0.025330
    O1  O2-  1.0000  0.473520  0.473520  0.854020  Uiso  0.025330
    O1  O2-  1.0000  0.744100  0.473520  0.854020  Uiso  0.025330
    O1  O2-  1.0000  0.202940  0.744100  0.854020  Uiso  0.025330
    O1  O2-  1.0000  0.473520  0.744100  0.854020  Uiso  0.025330
    O1  O2-  1.0000  0.744100  0.744100  0.854020  Uiso  0.025330
    O1  O2-  1.0000  0.202940  0.202940  0.887840  Uiso  0.025330
    O1  O2-  1.0000  0.473520  0.202940  0.887840  Uiso  0.025330
    O1  O2-  1.0000  0.744100  0.202940  0.887840  Uiso  0.025330
    O1  O2-  1.0000  0.202940  0.473520  0.887840  Uiso  0.025330
    O1  O2-  1.0000  0.473520  0.473520  0.887840  Uiso  0.025330
    O1  O2-  1.0000  0.744100  0.473520  0.887840  Uiso  0.025330
    O1  O2-  1.0000  0.202940  0.744100  0.887840  Uiso  0.025330
    O1  O2-  1.0000  0.473520  0.744100  0.887840  Uiso  0.025330
    O1  O2-  1.0000  0.744100  0.744100  0.887840  Uiso  0.025330
    O1  O2-  1.0000  0.202940  0.202940  0.921660  Uiso  0.025330
    O1  O2-  1.0000  0.473520  0.202940  0.921660  Uiso  0.025330
    O1  O2-  1.0000  0.744100  0.202940  0.921660  Uiso  0.025330
    O1  O2-  1.0000  0.202940  0.473520  0.921660  Uiso  0.025330
    O1  O2-  1.0000  0.473520  0.473520  0.921660  Uiso  0.025330
    O1  O2-  1.0000  0.744100  0.473520  0.921660  Uiso  0.025330
    O1  O2-  1.0000  0.202940  0.744100  0.921660  Uiso  0.025330
    O1  O2-  1.0000  0.473520  0.744100  0.921660  Uiso  0.025330
    O1  O2-  1.0000  0.744100  0.744100  0.921660  Uiso  0.025330
    O1  O2-  1.0000  0.202940  0.202940  0.955490  Uiso  0.025330
    O1  O2-  1.0000  0.473520  0.202940  0.955490  Uiso  0.025330
    O1  O2-  1.0000  0.744100  0.202940  0.955490  Uiso  0.025330
    O1  O2-  1.0000  0.202940  0.473520  0.955490  Uiso  0.025330
    O1  O2-  1.0000  0.473520  0.473520  0.955490  Uiso  0.025330
    O1  O2-  1.0000  0.744100  0.473520  0.955490  Uiso  0.025330
    O1  O2-  1.0000  0.202940  0.744100  0.955490  Uiso  0.025330
    O1  O2-  1.0000  0.473520  0.744100  0.955490  Uiso  0.025330
    O1  O2-  1.0000  0.744100  0.744100  0.955490  Uiso  0.025330
    O1  O2-  1.0000  0.202940  0.202940  0.989310  Uiso  0.025330
    O1  O2-  1.0000  0.473520  0.202940  0.989310  Uiso  0.025330
    O1  O2-  1.0000  0.744100  0.202940  0.989310  Uiso  0.025330
    O1  O2-  1.0000  0.202940  0.473520  0.989310  Uiso  0.025330
    O1  O2-  1.0000  0.473520  0.473520  0.989310  Uiso  0.025330
    O1  O2-  1.0000  0.744100  0.473520  0.989310  Uiso  0.025330
    O1  O2-  1.0000  0.202940  0.744100  0.989310  Uiso  0.025330
    O1  O2-  1.0000  0.473520  0.744100  0.989310  Uiso  0.025330
    O1  O2-  1.0000  0.744100  0.744100  0.989310  Uiso  0.025330
    Ce1  Ce4+  1.0000  0.000000  0.135290  0.016910  Uiso  0.001267
    Ce1  Ce4+  1.0000  0.270580  0.135290  0.016910  Uiso  0.001267
    Ce1  Ce4+  1.0000  0.541160  0.135290  0.016910  Uiso  0.001267
    Ce1  Ce4+  1.0000  0.811740  0.135290  0.016910  Uiso  0.001267
    Ce1  Ce4+  1.0000  0.000000  0.405870  0.016910  Uiso  0.001267
    Ce1  Ce4+  1.0000  0.270580  0.405870  0.016910  Uiso  0.001267
    Ce1  Ce4+  1.0000  0.541160  0.405870  0.016910  Uiso  0.001267
    Ce1  Ce4+  1.0000  0.811740  0.405870  0.016910  Uiso  0.001267
    Ce1  Ce4+  1.0000  0.000000  0.676450  0.016910  Uiso  0.001267
    Ce1  Ce4+  1.0000  0.270580  0.676450  0.016910  Uiso  0.001267
    Ce1  Ce4+  1.0000  0.541160  0.676450  0.016910  Uiso  0.001267
    Ce1  Ce4+  1.0000  0.811740  0.676450  0.016910  Uiso  0.001267
    Ce1  Ce4+  1.0000  0.000000  0.947030  0.016910  Uiso  0.001267
    Ce1  Ce4+  1.0000  0.270580  0.947030  0.016910  Uiso  0.001267
    Ce1  Ce4+  1.0000  0.541160  0.947030  0.016910  Uiso  0.001267
    Ce1  Ce4+  1.0000  0.811740  0.947030  0.016910  Uiso  0.001267
    Ce1  Ce4+  1.0000  0.000000  0.135290  0.050730  Uiso  0.001267
    Ce1  Ce4+  1.0000  0.270580  0.135290  0.050730  Uiso  0.001267
    Ce1  Ce4+  1.0000  0.541160  0.135290  0.050730  Uiso  0.001267
    Ce1  Ce4+  1.0000  0.811740  0.135290  0.050730  Uiso  0.001267
    Ce1  Ce4+  1.0000  0.000000  0.405870  0.050730  Uiso  0.001267
    Ce1  Ce4+  1.0000  0.270580  0.405870  0.050730  Uiso  0.001267
    Ce1  Ce4+  1.0000  0.541160  0.405870  0.050730  Uiso  0.001267
    Ce1  Ce4+  1.0000  0.811740  0.405870  0.050730  Uiso  0.001267
    Ce1  Ce4+  1.0000  0.000000  0.676450  0.050730  Uiso  0.001267
    Ce1  Ce4+  1.0000  0.270580  0.676450  0.050730  Uiso  0.001267
    Ce1  Ce4+  1.0000  0.541160  0.676450  0.050730  Uiso  0.001267
    Ce1  Ce4+  1.0000  0.811740  0.676450  0.050730  Uiso  0.001267
    Ce1  Ce4+  1.0000  0.000000  0.947030  0.050730  Uiso  0.001267
    Ce1  Ce4+  1.0000  0.270580  0.947030  0.050730  Uiso  0.001267
    Ce1  Ce4+  1.0000  0.541160  0.947030  0.050730  Uiso  0.001267
    Ce1  Ce4+  1.0000  0.811740  0.947030  0.050730  Uiso  0.001267
    Ce1  Ce4+  1.0000  0.000000  0.135290  0.084560  Uiso  0.001267
    Ce1  Ce4+  1.0000  0.270580  0.135290  0.084560  Uiso  0.001267
    Ce1  Ce4+  1.0000  0.541160  0.135290  0.084560  Uiso  0.001267
    Ce1  Ce4+  1.0000  0.811740  0.135290  0.084560  Uiso  0.001267
    Ce1  Ce4+  1.0000  0.000000  0.405870  0.084560  Uiso  0.001267
    Ce1  Ce4+  1.0000  0.270580  0.405870  0.084560  Uiso  0.001267
    Ce1  Ce4+  1.0000  0.541160  0.405870  0.084560  Uiso  0.001267
    Ce1  Ce4+  1.0000  0.811740  0.405870  0.084560  Uiso  0.001267
    Ce1  Ce4+  1.0000  0.000000  0.676450  0.084560  Uiso  0.001267
    Ce1  Ce4+  1.0000  0.270580  0.676450  0.084560  Uiso  0.001267
    Ce1  Ce4+  1.0000  0.541160  0.676450  0.084560  Uiso  0.001267
    Ce1  Ce4+  1.0000  0.811740  0.676450  0.084560  Uiso  0.001267
    Ce1  Ce4+  1.0000  0.000000  0.947030  0.084560  Uiso  0.001267
    Ce1  Ce4+  1.0000  0.270580  0.947030  0.084560  Uiso  0.001267
    Ce1  Ce4+  1.0000  0.541160  0.947030  0.084560  Uiso  0.001267
    Ce1  Ce4+  1.0000  0.811740  0.947030  0.084560  Uiso  0.001267
    Ce1  Ce4+  1.0000  0.000000  0.135290  0.118380  Uiso  0.001267
    Ce1  Ce4+  1.0000  0.270580  0.135290  0.118380  Uiso  0.001267
    Ce1  Ce4+  1.0000  0.541160  0.135290  0.118380  Uiso  0.001267
    Ce1  Ce4+  1.0000  0.811740  0.135290  0.118380  Uiso  0.001267
    Ce1  Ce4+  1.0000  0.000000  0.405870  0.118380  Uiso  0.001267
    Ce1  Ce4+  1.0000  0.270580  0.405870  0.118380  Uiso  0.001267
    Ce1  Ce4+  1.0000  0.541160  0.405870  0.118380  Uiso  0.001267
    Ce1  Ce4+  1.0000  0.811740  0.405870  0.118380  Uiso  0.001267
    Ce1  Ce4+  1.0000  0.000000  0.676450  0.118380  Uiso  0.001267
    Ce1  Ce4+  1.0000  0.270580  0.676450  0.118380  Uiso  0.001267
    Ce1  Ce4+  1.0000  0.541160  0.676450  0.118380  Uiso  0.001267
    Ce1  Ce4+  1.0000  0.811740  0.676450  0.118380  Uiso  0.001267
    Ce1  Ce4+  1.0000  0.000000  0.947030  0.118380  Uiso  0.001267
    Ce1  Ce4+  1.0000  0.270580  0.947030  0.118380  Uiso  0.001267
    Ce1  Ce4+  1.0000  0.541160  0.947030  0.118380  Uiso  0.001267
    Ce1  Ce4+  1.0000  0.811740  0.947030  0.118380  Uiso  0.001267
    Ce1  Ce4+  1.0000  0.000000  0.135290  0.152200  Uiso  0.001267
    Ce1  Ce4+  1.0000  0.270580  0.135290  0.152200  Uiso  0.001267
    Ce1  Ce4+  1.0000  0.541160  0.135290  0.152200  Uiso  0.001267
    Ce1  Ce4+  1.0000  0.811740  0.135290  0.152200  Uiso  0.001267
    Ce1  Ce4+  1.0000  0.000000  0.405870  0.152200  Uiso  0.001267
    Ce1  Ce4+  1.0000  0.270580  0.405870  0.152200  Uiso  0.001267
    Ce1  Ce4+  1.0000  0.541160  0.405870  0.152200  Uiso  0.001267
    Ce1  Ce4+  1.0000  0.811740  0.405870  0.152200  Uiso  0.001267
    Ce1  Ce4+  1.0000  0.000000  0.676450  0.152200  Uiso  0.001267
    Ce1  Ce4+  1.0000  0.270580  0.676450  0.152200  Uiso  0.001267
    Ce1  Ce4+  1.0000  0.541160  0.676450  0.152200  Uiso  0.001267
    Ce1  Ce4+  1.0000  0.811740  0.676450  0.152200  Uiso  0.001267
    Ce1  Ce4+  1.0000  0.000000  0.947030  0.152200  Uiso  0.001267
    Ce1  Ce4+  1.0000  0.270580  0.947030  0.152200  Uiso  0.001267
    Ce1  Ce4+  1.0000  0.541160  0.947030  0.152200  Uiso  0.001267
    Ce1  Ce4+  1.0000  0.811740  0.947030  0.152200  Uiso  0.001267
    Ce1  Ce4+  1.0000  0.000000  0.135290  0.186020  Uiso  0.001267
    Ce1  Ce4+  1.0000  0.270580  0.135290  0.186020  Uiso  0.001267
    Ce1  Ce4+  1.0000  0.541160  0.135290  0.186020  Uiso  0.001267
    Ce1  Ce4+  1.0000  0.811740  0.135290  0.186020  Uiso  0.001267
    Ce1  Ce4+  1.0000  0.000000  0.405870  0.186020  Uiso  0.001267
    Ce1  Ce4+  1.0000  0.270580  0.405870  0.186020  Uiso  0.001267
    Ce1  Ce4+  1.0000  0.541160  0.405870  0.186020  Uiso  0.001267
    Ce1  Ce4+  1.0000  0.811740  0.405870  0.186020  Uiso  0.001267
    Ce1  Ce4+  1.0000  0.000000  0.676450  0.186020  Uiso  0.001267
    Ce1  Ce4+  1.0000  0.270580  0.676450  0.186020  Uiso  0.001267
    Ce1  Ce4+  1.0000  0.541160  0.676450  0.186020  Uiso  0.001267
    Ce1  Ce4+  1.0000  0.811740  0.676450  0.186020  Uiso  0.001267
    Ce1  Ce4+  1.0000  0.000000  0.947030  0.186020  Uiso  0.001267
    Ce1  Ce4+  1.0000  0.270580  0.947030  0.186020  Uiso  0.001267
    Ce1  Ce4+  1.0000  0.541160  0.947030  0.186020  Uiso  0.001267
    Ce1  Ce4+  1.0000  0.811740  0.947030  0.186020  Uiso  0.001267
    Ce1  Ce4+  1.0000  0.000000  0.135290  0.219850  Uiso  0.001267
    Ce1  Ce4+  1.0000  0.270580  0.135290  0.219850  Uiso  0.001267
    Ce1  Ce4+  1.0000  0.541160  0.135290  0.219850  Uiso  0.001267
    Ce1  Ce4+  1.0000  0.811740  0.135290  0.219850  Uiso  0.001267
    Ce1  Ce4+  1.0000  0.000000  0.405870  0.219850  Uiso  0.001267
    Ce1  Ce4+  1.0000  0.270580  0.405870  0.219850  Uiso  0.001267
    Ce1  Ce4+  1.0000  0.541160  0.405870  0.219850  Uiso  0.001267
    Ce1  Ce4+  1.0000  0.811740  0.405870  0.219850  Uiso  0.001267
    Ce1  Ce4+  1.0000  0.000000  0.676450  0.219850  Uiso  0.001267
    Ce1  Ce4+  1.0000  0.270580  0.676450  0.219850  Uiso  0.001267
    Ce1  Ce4+  1.0000  0.541160  0.676450  0.219850  Uiso  0.001267
    Ce1  Ce4+  1.0000  0.811740  0.676450  0.219850  Uiso  0.001267
    Ce1  Ce4+  1.0000  0.000000  0.947030  0.219850  Uiso  0.001267
    Ce1  Ce4+  1.0000  0.270580  0.947030  0.219850  Uiso  0.001267
    Ce1  Ce4+  1.0000  0.541160  0.947030  0.219850  Uiso  0.001267
    Ce1  Ce4+  1.0000  0.811740  0.947030  0.219850  Uiso  0.001267
    Ce1  Ce4+  1.0000  0.000000  0.135290  0.253670  Uiso  0.001267
    Ce1  Ce4+  1.0000  0.270580  0.135290  0.253670  Uiso  0.001267
    Ce1  Ce4+  1.0000  0.541160  0.135290  0.253670  Uiso  0.001267
    Ce1  Ce4+  1.0000  0.811740  0.135290  0.253670  Uiso  0.001267
    Ce1  Ce4+  1.0000  0.000000  0.405870  0.253670  Uiso  0.001267
    Ce1  Ce4+  1.0000  0.270580  0.405870  0.253670  Uiso  0.001267
    Ce1  Ce4+  1.0000  0.541160  0.405870  0.253670  Uiso  0.001267
    Ce1  Ce4+  1.0000  0.811740  0.405870  0.253670  Uiso  0.001267
    Ce1  Ce4+  1.0000  0.000000  0.676450  0.253670  Uiso  0.001267
    Ce1  Ce4+  1.0000  0.270580  0.676450  0.253670  Uiso  0.001267
    Ce1  Ce4+  1.0000  0.541160  0.676450  0.253670  Uiso  0.001267
    Ce1  Ce4+  1.0000  0.811740  0.676450  0.253670  Uiso  0.001267
    Ce1  Ce4+  1.0000  0.000000  0.947030  0.253670  Uiso  0.001267
    Ce1  Ce4+  1.0000  0.270580  0.947030  0.253670  Uiso  0.001267
    Ce1  Ce4+  1.0000  0.541160  0.947030  0.253670  Uiso  0.001267
    Ce1  Ce4+  1.0000  0.811740  0.947030  0.253670  Uiso  0.001267
    Ce1  Ce4+  1.0000  0.000000  0.135290  0.287490  Uiso  0.001267
    Ce1  Ce4+  1.0000  0.270580  0.135290  0.287490  Uiso  0.001267
    Ce1  Ce4+  1.0000  0.541160  0.135290  0.287490  Uiso  0.001267
    Ce1  Ce4+  1.0000  0.811740  0.135290  0.287490  Uiso  0.001267
    Ce1  Ce4+  1.0000  0.000000  0.405870  0.287490  Uiso  0.001267
    Ce1  Ce4+  1.0000  0.270580  0.405870  0.287490  Uiso  0.001267
    Ce1  Ce4+  1.0000  0.541160  0.405870  0.287490  Uiso  0.001267
    Ce1  Ce4+  1.0000  0.811740  0.405870  0.287490  Uiso  0.001267
    Ce1  Ce4+  1.0000  0.000000  0.676450  0.287490  Uiso  0.001267
    Ce1  Ce4+  1.0000  0.270580  0.676450  0.287490  Uiso  0.001267
    Ce1  Ce4+  1.0000  0.541160  0.676450  0.287490  Uiso  0.001267
    Ce1  Ce4+  1.0000  0.811740  0.676450  0.287490  Uiso  0.001267
    Ce1  Ce4+  1.0000  0.000000  0.947030  0.287490  Uiso  0.001267
    Ce1  Ce4+  1.0000  0.270580  0.947030  0.287490  Uiso  0.001267
    Ce1  Ce4+  1.0000  0.541160  0.947030  0.287490  Uiso  0.001267
    Ce1  Ce4+  1.0000  0.811740  0.947030  0.287490  Uiso  0.001267
    Ce1  Ce4+  1.0000  0.000000  0.135290  0.321310  Uiso  0.001267
    Ce1  Ce4+  1.0000  0.270580  0.135290  0.321310  Uiso  0.001267
    Ce1  Ce4+  1.0000  0.541160  0.135290  0.321310  Uiso  0.001267
    Ce1  Ce4+  1.0000  0.811740  0.135290  0.321310  Uiso  0.001267
    Ce1  Ce4+  1.0000  0.000000  0.405870  0.321310  Uiso  0.001267
    Ce1  Ce4+  1.0000  0.270580  0.405870  0.321310  Uiso  0.001267
    Ce1  Ce4+  1.0000  0.541160  0.405870  0.321310  Uiso  0.001267
    Ce1  Ce4+  1.0000  0.811740  0.405870  0.321310  Uiso  0.001267
    Ce1  Ce4+  1.0000  0.000000  0.676450  0.321310  Uiso  0.001267
    Ce1  Ce4+  1.0000  0.270580  0.676450  0.321310  Uiso  0.001267
    Ce1  Ce4+  1.0000  0.541160  0.676450  0.321310  Uiso  0.001267
    Ce1  Ce4+  1.0000  0.811740  0.676450  0.321310  Uiso  0.001267
    Ce1  Ce4+  1.0000  0.000000  0.947030  0.321310  Uiso  0.001267
    Ce1  Ce4+  1.0000  0.270580  0.947030  0.321310  Uiso  0.001267
    Ce1  Ce4+  1.0000  0.541160  0.947030  0.321310  Uiso  0.001267
    Ce1  Ce4+  1.0000  0.811740  0.947030  0.321310  Uiso  0.001267
    Ce1  Ce4+  1.0000  0.000000  0.135290  0.355140  Uiso  0.001267
    Ce1  Ce4+  1.0000  0.270580  0.135290  0.355140  Uiso  0.001267
    Ce1  Ce4+  1.0000  0.541160  0.135290  0.355140  Uiso  0.001267
    Ce1  Ce4+  1.0000  0.811740  0.135290  0.355140  Uiso  0.001267
    Ce1  Ce4+  1.0000  0.000000  0.405870  0.355140  Uiso  0.001267
    Ce1  Ce4+  1.0000  0.270580  0.405870  0.355140  Uiso  0.001267
    Ce1  Ce4+  1.0000  0.541160  0.405870  0.355140  Uiso  0.001267
    Ce1  Ce4+  1.0000  0.811740  0.405870  0.355140  Uiso  0.001267
    Ce1  Ce4+  1.0000  0.000000  0.676450  0.355140  Uiso  0.001267
    Ce1  Ce4+  1.0000  0.270580  0.676450  0.355140  Uiso  0.001267
    Ce1  Ce4+  1.0000  0.541160  0.676450  0.355140  Uiso  0.001267
    Ce1  Ce4+  1.0000  0.811740  0.676450  0.355140  Uiso  0.001267
    Ce1  Ce4+  1.0000  0.000000  0.947030  0.355140  Uiso  0.001267
    Ce1  Ce4+  1.0000  0.270580  0.947030  0.355140  Uiso  0.001267
    Ce1  Ce4+  1.0000  0.541160  0.947030  0.355140  Uiso  0.001267
    Ce1  Ce4+  1.0000  0.811740  0.947030  0.355140  Uiso  0.001267
    Ce1  Ce4+  1.0000  0.000000  0.135290  0.388960  Uiso  0.001267
    Ce1  Ce4+  1.0000  0.270580  0.135290  0.388960  Uiso  0.001267
    Ce1  Ce4+  1.0000  0.541160  0.135290  0.388960  Uiso  0.001267
    Ce1  Ce4+  1.0000  0.811740  0.135290  0.388960  Uiso  0.001267
    Ce1  Ce4+  1.0000  0.000000  0.405870  0.388960  Uiso  0.001267
    Ce1  Ce4+  1.0000  0.270580  0.405870  0.388960  Uiso  0.001267
    Ce1  Ce4+  1.0000  0.541160  0.405870  0.388960  Uiso  0.001267
    Ce1  Ce4+  1.0000  0.811740  0.405870  0.388960  Uiso  0.001267
    Ce1  Ce4+  1.0000  0.000000  0.676450  0.388960  Uiso  0.001267
    Ce1  Ce4+  1.0000  0.270580  0.676450  0.388960  Uiso  0.001267
    Ce1  Ce4+  1.0000  0.541160  0.676450  0.388960  Uiso  0.001267
    Ce1  Ce4+  1.0000  0.811740  0.676450  0.388960  Uiso  0.001267
    Ce1  Ce4+  1.0000  0.000000  0.947030  0.388960  Uiso  0.001267
    Ce1  Ce4+  1.0000  0.270580  0.947030  0.388960  Uiso  0.001267
    Ce1  Ce4+  1.0000  0.541160  0.947030  0.388960  Uiso  0.001267
    Ce1  Ce4+  1.0000  0.811740  0.947030  0.388960  Uiso  0.001267
    Ce1  Ce4+  1.0000  0.000000  0.135290  0.422780  Uiso  0.001267
    Ce1  Ce4+  1.0000  0.270580  0.135290  0.422780  Uiso  0.001267
    Ce1  Ce4+  1.0000  0.541160  0.135290  0.422780  Uiso  0.001267
    Ce1  Ce4+  1.0000  0.811740  0.135290  0.422780  Uiso  0.001267
    Ce1  Ce4+  1.0000  0.000000  0.405870  0.422780  Uiso  0.001267
    Ce1  Ce4+  1.0000  0.270580  0.405870  0.422780  Uiso  0.001267
    Ce1  Ce4+  1.0000  0.541160  0.405870  0.422780  Uiso  0.001267
    Ce1  Ce4+  1.0000  0.811740  0.405870  0.422780  Uiso  0.001267
    Ce1  Ce4+  1.0000  0.000000  0.676450  0.422780  Uiso  0.001267
    Ce1  Ce4+  1.0000  0.270580  0.676450  0.422780  Uiso  0.001267
    Ce1  Ce4+  1.0000  0.541160  0.676450  0.422780  Uiso  0.001267
    Ce1  Ce4+  1.0000  0.811740  0.676450  0.422780  Uiso  0.001267
    Ce1  Ce4+  1.0000  0.000000  0.947030  0.422780  Uiso  0.001267
    Ce1  Ce4+  1.0000  0.270580  0.947030  0.422780  Uiso  0.001267
    Ce1  Ce4+  1.0000  0.541160  0.947030  0.422780  Uiso  0.001267
    Ce1  Ce4+  1.0000  0.811740  0.947030  0.422780  Uiso  0.001267
    Ce1  Ce4+  1.0000  0.000000  0.135290  0.456600  Uiso  0.001267
    Ce1  Ce4+  1.0000  0.270580  0.135290  0.456600  Uiso  0.001267
    Ce1  Ce4+  1.0000  0.541160  0.135290  0.456600  Uiso  0.001267
    Ce1  Ce4+  1.0000  0.811740  0.135290  0.456600  Uiso  0.001267
    Ce1  Ce4+  1.0000  0.000000  0.405870  0.456600  Uiso  0.001267
    Ce1  Ce4+  1.0000  0.270580  0.405870  0.456600  Uiso  0.001267
    Ce1  Ce4+  1.0000  0.541160  0.405870  0.456600  Uiso  0.001267
    Ce1  Ce4+  1.0000  0.811740  0.405870  0.456600  Uiso  0.001267
    Ce1  Ce4+  1.0000  0.000000  0.676450  0.456600  Uiso  0.001267
    Ce1  Ce4+  1.0000  0.270580  0.676450  0.456600  Uiso  0.001267
    Ce1  Ce4+  1.0000  0.541160  0.676450  0.456600  Uiso  0.001267
    Ce1  Ce4+  1.0000  0.811740  0.676450  0.456600  Uiso  0.001267
    Ce1  Ce4+  1.0000  0.000000  0.947030  0.456600  Uiso  0.001267
    Ce1  Ce4+  1.0000  0.270580  0.947030  0.456600  Uiso  0.001267
    Ce1  Ce4+  1.0000  0.541160  0.947030  0.456600  Uiso  0.001267
    Ce1  Ce4+  1.0000  0.811740  0.947030  0.456600  Uiso  0.001267
    Ce1  Ce4+  1.0000  0.000000  0.135290  0.490430  Uiso  0.001267
    Ce1  Ce4+  1.0000  0.270580  0.135290  0.490430  Uiso  0.001267
    Ce1  Ce4+  1.0000  0.541160  0.135290  0.490430  Uiso  0.001267
    Ce1  Ce4+  1.0000  0.811740  0.135290  0.490430  Uiso  0.001267
    Ce1  Ce4+  1.0000  0.000000  0.405870  0.490430  Uiso  0.001267
    Ce1  Ce4+  1.0000  0.270580  0.405870  0.490430  Uiso  0.001267
    Ce1  Ce4+  1.0000  0.541160  0.405870  0.490430  Uiso  0.001267
    Ce1  Ce4+  1.0000  0.811740  0.405870  0.490430  Uiso  0.001267
    Ce1  Ce4+  1.0000  0.000000  0.676450  0.490430  Uiso  0.001267
    Ce1  Ce4+  1.0000  0.270580  0.676450  0.490430  Uiso  0.001267
    Ce1  Ce4+  1.0000  0.541160  0.676450  0.490430  Uiso  0.001267
    Ce1  Ce4+  1.0000  0.811740  0.676450  0.490430  Uiso  0.001267
    Ce1  Ce4+  1.0000  0.000000  0.947030  0.490430  Uiso  0.001267
    Ce1  Ce4+  1.0000  0.270580  0.947030  0.490430  Uiso  0.001267
    Ce1  Ce4+  1.0000  0.541160  0.947030  0.490430  Uiso  0.001267
    Ce1  Ce4+  1.0000  0.811740  0.947030  0.490430  Uiso  0.001267
    Ce1  Ce4+  1.0000  0.000000  0.135290  0.524250  Uiso  0.001267
    Ce1  Ce4+  1.0000  0.270580  0.135290  0.524250  Uiso  0.001267
    Ce1  Ce4+  1.0000  0.541160  0.135290  0.524250  Uiso  0.001267
    Ce1  Ce4+  1.0000  0.811740  0.135290  0.524250  Uiso  0.001267
    Ce1  Ce4+  1.0000  0.000000  0.405870  0.524250  Uiso  0.001267
    Ce1  Ce4+  1.0000  0.270580  0.405870  0.524250  Uiso  0.001267
    Ce1  Ce4+  1.0000  0.541160  0.405870  0.524250  Uiso  0.001267
    Ce1  Ce4+  1.0000  0.811740  0.405870  0.524250  Uiso  0.001267
    Ce1  Ce4+  1.0000  0.000000  0.676450  0.524250  Uiso  0.001267
    Ce1  Ce4+  1.0000  0.270580  0.676450  0.524250  Uiso  0.001267
    Ce1  Ce4+  1.0000  0.541160  0.676450  0.524250  Uiso  0.001267
    Ce1  Ce4+  1.0000  0.811740  0.676450  0.524250  Uiso  0.001267
    Ce1  Ce4+  1.0000  0.000000  0.947030  0.524250  Uiso  0.001267
    Ce1  Ce4+  1.0000  0.270580  0.947030  0.524250  Uiso  0.001267
    Ce1  Ce4+  1.0000  0.541160  0.947030  0.524250  Uiso  0.001267
    Ce1  Ce4+  1.0000  0.811740  0.947030  0.524250  Uiso  0.001267
    Ce1  Ce4+  1.0000  0.000000  0.135290  0.558070  Uiso  0.001267
    Ce1  Ce4+  1.0000  0.270580  0.135290  0.558070  Uiso  0.001267
    Ce1  Ce4+  1.0000  0.541160  0.135290  0.558070  Uiso  0.001267
    Ce1  Ce4+  1.0000  0.811740  0.135290  0.558070  Uiso  0.001267
    Ce1  Ce4+  1.0000  0.000000  0.405870  0.558070  Uiso  0.001267
    Ce1  Ce4+  1.0000  0.270580  0.405870  0.558070  Uiso  0.001267
    Ce1  Ce4+  1.0000  0.541160  0.405870  0.558070  Uiso  0.001267
    Ce1  Ce4+  1.0000  0.811740  0.405870  0.558070  Uiso  0.001267
    Ce1  Ce4+  1.0000  0.000000  0.676450  0.558070  Uiso  0.001267
    Ce1  Ce4+  1.0000  0.270580  0.676450  0.558070  Uiso  0.001267
    Ce1  Ce4+  1.0000  0.541160  0.676450  0.558070  Uiso  0.001267
    Ce1  Ce4+  1.0000  0.811740  0.676450  0.558070  Uiso  0.001267
    Ce1  Ce4+  1.0000  0.000000  0.947030  0.558070  Uiso  0.001267
    Ce1  Ce4+  1.0000  0.270580  0.947030  0.558070  Uiso  0.001267
    Ce1  Ce4+  1.0000  0.541160  0.947030  0.558070  Uiso  0.001267
    Ce1  Ce4+  1.0000  0.811740  0.947030  0.558070  Uiso  0.001267
    Ce1  Ce4+  1.0000  0.000000  0.135290  0.591890  Uiso  0.001267
    Ce1  Ce4+  1.0000  0.270580  0.135290  0.591890  Uiso  0.001267
    Ce1  Ce4+  1.0000  0.541160  0.135290  0.591890  Uiso  0.001267
    Ce1  Ce4+  1.0000  0.811740  0.135290  0.591890  Uiso  0.001267
    Ce1  Ce4+  1.0000  0.000000  0.405870  0.591890  Uiso  0.001267
    Ce1  Ce4+  1.0000  0.270580  0.405870  0.591890  Uiso  0.001267
    Ce1  Ce4+  1.0000  0.541160  0.405870  0.591890  Uiso  0.001267
    Ce1  Ce4+  1.0000  0.811740  0.405870  0.591890  Uiso  0.001267
    Ce1  Ce4+  1.0000  0.000000  0.676450  0.591890  Uiso  0.001267
    Ce1  Ce4+  1.0000  0.270580  0.676450  0.591890  Uiso  0.001267
    Ce1  Ce4+  1.0000  0.541160  0.676450  0.591890  Uiso  0.001267
    Ce1  Ce4+  1.0000  0.811740  0.676450  0.591890  Uiso  0.001267
    Ce1  Ce4+  1.0000  0.000000  0.947030  0.591890  Uiso  0.001267
    Ce1  Ce4+  1.0000  0.270580  0.947030  0.591890  Uiso  0.001267
    Ce1  Ce4+  1.0000  0.541160  0.947030  0.591890  Uiso  0.001267
    Ce1  Ce4+  1.0000  0.811740  0.947030  0.591890  Uiso  0.001267
    Ce1  Ce4+  1.0000  0.000000  0.135290  0.625720  Uiso  0.001267
    Ce1  Ce4+  1.0000  0.270580  0.135290  0.625720  Uiso  0.001267
    Ce1  Ce4+  1.0000  0.541160  0.135290  0.625720  Uiso  0.001267
    Ce1  Ce4+  1.0000  0.811740  0.135290  0.625720  Uiso  0.001267
    Ce1  Ce4+  1.0000  0.000000  0.405870  0.625720  Uiso  0.001267
    Ce1  Ce4+  1.0000  0.270580  0.405870  0.625720  Uiso  0.001267
    Ce1  Ce4+  1.0000  0.541160  0.405870  0.625720  Uiso  0.001267
    Ce1  Ce4+  1.0000  0.811740  0.405870  0.625720  Uiso  0.001267
    Ce1  Ce4+  1.0000  0.000000  0.676450  0.625720  Uiso  0.001267
    Ce1  Ce4+  1.0000  0.270580  0.676450  0.625720  Uiso  0.001267
    Ce1  Ce4+  1.0000  0.541160  0.676450  0.625720  Uiso  0.001267
    Ce1  Ce4+  1.0000  0.811740  0.676450  0.625720  Uiso  0.001267
    Ce1  Ce4+  1.0000  0.000000  0.947030  0.625720  Uiso  0.001267
    Ce1  Ce4+  1.0000  0.270580  0.947030  0.625720  Uiso  0.001267
    Ce1  Ce4+  1.0000  0.541160  0.947030  0.625720  Uiso  0.001267
    Ce1  Ce4+  1.0000  0.811740  0.947030  0.625720  Uiso  0.001267
    Ce1  Ce4+  1.0000  0.000000  0.135290  0.659540  Uiso  0.001267
    Ce1  Ce4+  1.0000  0.270580  0.135290  0.659540  Uiso  0.001267
    Ce1  Ce4+  1.0000  0.541160  0.135290  0.659540  Uiso  0.001267
    Ce1  Ce4+  1.0000  0.811740  0.135290  0.659540  Uiso  0.001267
    Ce1  Ce4+  1.0000  0.000000  0.405870  0.659540  Uiso  0.001267
    Ce1  Ce4+  1.0000  0.270580  0.405870  0.659540  Uiso  0.001267
    Ce1  Ce4+  1.0000  0.541160  0.405870  0.659540  Uiso  0.001267
    Ce1  Ce4+  1.0000  0.811740  0.405870  0.659540  Uiso  0.001267
    Ce1  Ce4+  1.0000  0.000000  0.676450  0.659540  Uiso  0.001267
    Ce1  Ce4+  1.0000  0.270580  0.676450  0.659540  Uiso  0.001267
    Ce1  Ce4+  1.0000  0.541160  0.676450  0.659540  Uiso  0.001267
    Ce1  Ce4+  1.0000  0.811740  0.676450  0.659540  Uiso  0.001267
    Ce1  Ce4+  1.0000  0.000000  0.947030  0.659540  Uiso  0.001267
    Ce1  Ce4+  1.0000  0.270580  0.947030  0.659540  Uiso  0.001267
    Ce1  Ce4+  1.0000  0.541160  0.947030  0.659540  Uiso  0.001267
    Ce1  Ce4+  1.0000  0.811740  0.947030  0.659540  Uiso  0.001267
    Ce1  Ce4+  1.0000  0.000000  0.135290  0.693360  Uiso  0.001267
    Ce1  Ce4+  1.0000  0.270580  0.135290  0.693360  Uiso  0.001267
    Ce1  Ce4+  1.0000  0.541160  0.135290  0.693360  Uiso  0.001267
    Ce1  Ce4+  1.0000  0.811740  0.135290  0.693360  Uiso  0.001267
    Ce1  Ce4+  1.0000  0.000000  0.405870  0.693360  Uiso  0.001267
    Ce1  Ce4+  1.0000  0.270580  0.405870  0.693360  Uiso  0.001267
    Ce1  Ce4+  1.0000  0.541160  0.405870  0.693360  Uiso  0.001267
    Ce1  Ce4+  1.0000  0.811740  0.405870  0.693360  Uiso  0.001267
    Ce1  Ce4+  1.0000  0.000000  0.676450  0.693360  Uiso  0.001267
    Ce1  Ce4+  1.0000  0.270580  0.676450  0.693360  Uiso  0.001267
    Ce1  Ce4+  1.0000  0.541160  0.676450  0.693360  Uiso  0.001267
    Ce1  Ce4+  1.0000  0.811740  0.676450  0.693360  Uiso  0.001267
    Ce1  Ce4+  1.0000  0.000000  0.947030  0.693360  Uiso  0.001267
    Ce1  Ce4+  1.0000  0.270580  0.947030  0.693360  Uiso  0.001267
    Ce1  Ce4+  1.0000  0.541160  0.947030  0.693360  Uiso  0.001267
    Ce1  Ce4+  1.0000  0.811740  0.947030  0.693360  Uiso  0.001267
    Ce1  Ce4+  1.0000  0.000000  0.135290  0.727180  Uiso  0.001267
    Ce1  Ce4+  1.0000  0.270580  0.135290  0.727180  Uiso  0.001267
    Ce1  Ce4+  1.0000  0.541160  0.135290  0.727180  Uiso  0.001267
    Ce1  Ce4+  1.0000  0.811740  0.135290  0.727180  Uiso  0.001267
    Ce1  Ce4+  1.0000  0.000000  0.405870  0.727180  Uiso  0.001267
    Ce1  Ce4+  1.0000  0.270580  0.405870  0.727180  Uiso  0.001267
    Ce1  Ce4+  1.0000  0.541160  0.405870  0.727180  Uiso  0.001267
    Ce1  Ce4+  1.0000  0.811740  0.405870  0.727180  Uiso  0.001267
    Ce1  Ce4+  1.0000  0.000000  0.676450  0.727180  Uiso  0.001267
    Ce1  Ce4+  1.0000  0.270580  0.676450  0.727180  Uiso  0.001267
    Ce1  Ce4+  1.0000  0.541160  0.676450  0.727180  Uiso  0.001267
    Ce1  Ce4+  1.0000  0.811740  0.676450  0.727180  Uiso  0.001267
    Ce1  Ce4+  1.0000  0.000000  0.947030  0.727180  Uiso  0.001267
    Ce1  Ce4+  1.0000  0.270580  0.947030  0.727180  Uiso  0.001267
    Ce1  Ce4+  1.0000  0.541160  0.947030  0.727180  Uiso  0.001267
    Ce1  Ce4+  1.0000  0.811740  0.947030  0.727180  Uiso  0.001267
    Ce1  Ce4+  1.0000  0.000000  0.135290  0.761010  Uiso  0.001267
    Ce1  Ce4+  1.0000  0.270580  0.135290  0.761010  Uiso  0.001267
    Ce1  Ce4+  1.0000  0.541160  0.135290  0.761010  Uiso  0.001267
    Ce1  Ce4+  1.0000  0.811740  0.135290  0.761010  Uiso  0.001267
    Ce1  Ce4+  1.0000  0.000000  0.405870  0.761010  Uiso  0.001267
    Ce1  Ce4+  1.0000  0.270580  0.405870  0.761010  Uiso  0.001267
    Ce1  Ce4+  1.0000  0.541160  0.405870  0.761010  Uiso  0.001267
    Ce1  Ce4+  1.0000  0.811740  0.405870  0.761010  Uiso  0.001267
    Ce1  Ce4+  1.0000  0.000000  0.676450  0.761010  Uiso  0.001267
    Ce1  Ce4+  1.0000  0.270580  0.676450  0.761010  Uiso  0.001267
    Ce1  Ce4+  1.0000  0.541160  0.676450  0.761010  Uiso  0.001267
    Ce1  Ce4+  1.0000  0.811740  0.676450  0.761010  Uiso  0.001267
    Ce1  Ce4+  1.0000  0.000000  0.947030  0.761010  Uiso  0.001267
    Ce1  Ce4+  1.0000  0.270580  0.947030  0.761010  Uiso  0.001267
    Ce1  Ce4+  1.0000  0.541160  0.947030  0.761010  Uiso  0.001267
    Ce1  Ce4+  1.0000  0.811740  0.947030  0.761010  Uiso  0.001267
    Ce1  Ce4+  1.0000  0.000000  0.135290  0.794830  Uiso  0.001267
    Ce1  Ce4+  1.0000  0.270580  0.135290  0.794830  Uiso  0.001267
    Ce1  Ce4+  1.0000  0.541160  0.135290  0.794830  Uiso  0.001267
    Ce1  Ce4+  1.0000  0.811740  0.135290  0.794830  Uiso  0.001267
    Ce1  Ce4+  1.0000  0.000000  0.405870  0.794830  Uiso  0.001267
    Ce1  Ce4+  1.0000  0.270580  0.405870  0.794830  Uiso  0.001267
    Ce1  Ce4+  1.0000  0.541160  0.405870  0.794830  Uiso  0.001267
    Ce1  Ce4+  1.0000  0.811740  0.405870  0.794830  Uiso  0.001267
    Ce1  Ce4+  1.0000  0.000000  0.676450  0.794830  Uiso  0.001267
    Ce1  Ce4+  1.0000  0.270580  0.676450  0.794830  Uiso  0.001267
    Ce1  Ce4+  1.0000  0.541160  0.676450  0.794830  Uiso  0.001267
    Ce1  Ce4+  1.0000  0.811740  0.676450  0.794830  Uiso  0.001267
    Ce1  Ce4+  1.0000  0.000000  0.947030  0.794830  Uiso  0.001267
    Ce1  Ce4+  1.0000  0.270580  0.947030  0.794830  Uiso  0.001267
    Ce1  Ce4+  1.0000  0.541160  0.947030  0.794830  Uiso  0.001267
    Ce1  Ce4+  1.0000  0.811740  0.947030  0.794830  Uiso  0.001267
    Ce1  Ce4+  1.0000  0.000000  0.135290  0.828650  Uiso  0.001267
    Ce1  Ce4+  1.0000  0.270580  0.135290  0.828650  Uiso  0.001267
    Ce1  Ce4+  1.0000  0.541160  0.135290  0.828650  Uiso  0.001267
    Ce1  Ce4+  1.0000  0.811740  0.135290  0.828650  Uiso  0.001267
    Ce1  Ce4+  1.0000  0.000000  0.405870  0.828650  Uiso  0.001267
    Ce1  Ce4+  1.0000  0.270580  0.405870  0.828650  Uiso  0.001267
    Ce1  Ce4+  1.0000  0.541160  0.405870  0.828650  Uiso  0.001267
    Ce1  Ce4+  1.0000  0.811740  0.405870  0.828650  Uiso  0.001267
    Ce1  Ce4+  1.0000  0.000000  0.676450  0.828650  Uiso  0.001267
    Ce1  Ce4+  1.0000  0.270580  0.676450  0.828650  Uiso  0.001267
    Ce1  Ce4+  1.0000  0.541160  0.676450  0.828650  Uiso  0.001267
    Ce1  Ce4+  1.0000  0.811740  0.676450  0.828650  Uiso  0.001267
    Ce1  Ce4+  1.0000  0.000000  0.947030  0.828650  Uiso  0.001267
    Ce1  Ce4+  1.0000  0.270580  0.947030  0.828650  Uiso  0.001267
    Ce1  Ce4+  1.0000  0.541160  0.947030  0.828650  Uiso  0.001267
    Ce1  Ce4+  1.0000  0.811740  0.947030  0.828650  Uiso  0.001267
    Ce1  Ce4+  1.0000  0.000000  0.135290  0.862470  Uiso  0.001267
    Ce1  Ce4+  1.0000  0.270580  0.135290  0.862470  Uiso  0.001267
    Ce1  Ce4+  1.0000  0.541160  0.135290  0.862470  Uiso  0.001267
    Ce1  Ce4+  1.0000  0.811740  0.135290  0.862470  Uiso  0.001267
    Ce1  Ce4+  1.0000  0.000000  0.405870  0.862470  Uiso  0.001267
    Ce1  Ce4+  1.0000  0.270580  0.405870  0.862470  Uiso  0.001267
    Ce1  Ce4+  1.0000  0.541160  0.405870  0.862470  Uiso  0.001267
    Ce1  Ce4+  1.0000  0.811740  0.405870  0.862470  Uiso  0.001267
    Ce1  Ce4+  1.0000  0.000000  0.676450  0.862470  Uiso  0.001267
    Ce1  Ce4+  1.0000  0.270580  0.676450  0.862470  Uiso  0.001267
    Ce1  Ce4+  1.0000  0.541160  0.676450  0.862470  Uiso  0.001267
    Ce1  Ce4+  1.0000  0.811740  0.676450  0.862470  Uiso  0.001267
    Ce1  Ce4+  1.0000  0.000000  0.947030  0.862470  Uiso  0.001267
    Ce1  Ce4+  1.0000  0.270580  0.947030  0.862470  Uiso  0.001267
    Ce1  Ce4+  1.0000  0.541160  0.947030  0.862470  Uiso  0.001267
    Ce1  Ce4+  1.0000  0.811740  0.947030  0.862470  Uiso  0.001267
    Ce1  Ce4+  1.0000  0.000000  0.135290  0.896300  Uiso  0.001267
    Ce1  Ce4+  1.0000  0.270580  0.135290  0.896300  Uiso  0.001267
    Ce1  Ce4+  1.0000  0.541160  0.135290  0.896300  Uiso  0.001267
    Ce1  Ce4+  1.0000  0.811740  0.135290  0.896300  Uiso  0.001267
    Ce1  Ce4+  1.0000  0.000000  0.405870  0.896300  Uiso  0.001267
    Ce1  Ce4+  1.0000  0.270580  0.405870  0.896300  Uiso  0.001267
    Ce1  Ce4+  1.0000  0.541160  0.405870  0.896300  Uiso  0.001267
    Ce1  Ce4+  1.0000  0.811740  0.405870  0.896300  Uiso  0.001267
    Ce1  Ce4+  1.0000  0.000000  0.676450  0.896300  Uiso  0.001267
    Ce1  Ce4+  1.0000  0.270580  0.676450  0.896300  Uiso  0.001267
    Ce1  Ce4+  1.0000  0.541160  0.676450  0.896300  Uiso  0.001267
    Ce1  Ce4+  1.0000  0.811740  0.676450  0.896300  Uiso  0.001267
    Ce1  Ce4+  1.0000  0.000000  0.947030  0.896300  Uiso  0.001267
    Ce1  Ce4+  1.0000  0.270580  0.947030  0.896300  Uiso  0.001267
    Ce1  Ce4+  1.0000  0.541160  0.947030  0.896300  Uiso  0.001267
    Ce1  Ce4+  1.0000  0.811740  0.947030  0.896300  Uiso  0.001267
    Ce1  Ce4+  1.0000  0.000000  0.135290  0.930120  Uiso  0.001267
    Ce1  Ce4+  1.0000  0.270580  0.135290  0.930120  Uiso  0.001267
    Ce1  Ce4+  1.0000  0.541160  0.135290  0.930120  Uiso  0.001267
    Ce1  Ce4+  1.0000  0.811740  0.135290  0.930120  Uiso  0.001267
    Ce1  Ce4+  1.0000  0.000000  0.405870  0.930120  Uiso  0.001267
    Ce1  Ce4+  1.0000  0.270580  0.405870  0.930120  Uiso  0.001267
    Ce1  Ce4+  1.0000  0.541160  0.405870  0.930120  Uiso  0.001267
    Ce1  Ce4+  1.0000  0.811740  0.405870  0.930120  Uiso  0.001267
    Ce1  Ce4+  1.0000  0.000000  0.676450  0.930120  Uiso  0.001267
    Ce1  Ce4+  1.0000  0.270580  0.676450  0.930120  Uiso  0.001267
    Ce1  Ce4+  1.0000  0.541160  0.676450  0.930120  Uiso  0.001267
    Ce1  Ce4+  1.0000  0.811740  0.676450  0.930120  Uiso  0.001267
    Ce1  Ce4+  1.0000  0.000000  0.947030  0.930120  Uiso  0.001267
    Ce1  Ce4+  1.0000  0.270580  0.947030  0.930120  Uiso  0.001267
    Ce1  Ce4+  1.0000  0.541160  0.947030  0.930120  Uiso  0.001267
    Ce1  Ce4+  1.0000  0.811740  0.947030  0.930120  Uiso  0.001267
    Ce1  Ce4+  1.0000  0.000000  0.135290  0.963940  Uiso  0.001267
    Ce1  Ce4+  1.0000  0.270580  0.135290  0.963940  Uiso  0.001267
    Ce1  Ce4+  1.0000  0.541160  0.135290  0.963940  Uiso  0.001267
    Ce1  Ce4+  1.0000  0.811740  0.135290  0.963940  Uiso  0.001267
    Ce1  Ce4+  1.0000  0.000000  0.405870  0.963940  Uiso  0.001267
    Ce1  Ce4+  1.0000  0.270580  0.405870  0.963940  Uiso  0.001267
    Ce1  Ce4+  1.0000  0.541160  0.405870  0.963940  Uiso  0.001267
    Ce1  Ce4+  1.0000  0.811740  0.405870  0.963940  Uiso  0.001267
    Ce1  Ce4+  1.0000  0.000000  0.676450  0.963940  Uiso  0.001267
    Ce1  Ce4+  1.0000  0.270580  0.676450  0.963940  Uiso  0.001267
    Ce1  Ce4+  1.0000  0.541160  0.676450  0.963940  Uiso  0.001267
    Ce1  Ce4+  1.0000  0.811740  0.676450  0.963940  Uiso  0.001267
    Ce1  Ce4+  1.0000  0.000000  0.947030  0.963940  Uiso  0.001267
    Ce1  Ce4+  1.0000  0.270580  0.947030  0.963940  Uiso  0.001267
    Ce1  Ce4+  1.0000  0.541160  0.947030  0.963940  Uiso  0.001267
    Ce1  Ce4+  1.0000  0.811740  0.947030  0.963940  Uiso  0.001267
    Ce1  Ce4+  1.0000  0.000000  0.135290  0.997760  Uiso  0.001267
    Ce1  Ce4+  1.0000  0.270580  0.135290  0.997760  Uiso  0.001267
    Ce1  Ce4+  1.0000  0.541160  0.135290  0.997760  Uiso  0.001267
    Ce1  Ce4+  1.0000  0.811740  0.135290  0.997760  Uiso  0.001267
    Ce1  Ce4+  1.0000  0.000000  0.405870  0.997760  Uiso  0.001267
    Ce1  Ce4+  1.0000  0.270580  0.405870  0.997760  Uiso  0.001267
    Ce1  Ce4+  1.0000  0.541160  0.405870  0.997760  Uiso  0.001267
    Ce1  Ce4+  1.0000  0.811740  0.405870  0.997760  Uiso  0.001267
    Ce1  Ce4+  1.0000  0.000000  0.676450  0.997760  Uiso  0.001267
    Ce1  Ce4+  1.0000  0.270580  0.676450  0.997760  Uiso  0.001267
    Ce1  Ce4+  1.0000  0.541160  0.676450  0.997760  Uiso  0.001267
    Ce1  Ce4+  1.0000  0.811740  0.676450  0.997760  Uiso  0.001267
    Ce1  Ce4+  1.0000  0.000000  0.947030  0.997760  Uiso  0.001267
    Ce1  Ce4+  1.0000  0.270580  0.947030  0.997760  Uiso  0.001267
    Ce1  Ce4+  1.0000  0.541160  0.947030  0.997760  Uiso  0.001267
    Ce1  Ce4+  1.0000  0.811740  0.947030  0.997760  Uiso  0.001267
    Ce1  Ce4+  1.0000  0.135290  0.135290  0.000000  Uiso  0.001267
    Ce1  Ce4+  1.0000  0.405870  0.135290  0.000000  Uiso  0.001267
    Ce1  Ce4+  1.0000  0.676450  0.135290  0.000000  Uiso  0.001267
    Ce1  Ce4+  1.0000  0.947030  0.135290  0.000000  Uiso  0.001267
    Ce1  Ce4+  1.0000  0.135290  0.405870  0.000000  Uiso  0.001267
    Ce1  Ce4+  1.0000  0.405870  0.405870  0.000000  Uiso  0.001267
    Ce1  Ce4+  1.0000  0.676450  0.405870  0.000000  Uiso  0.001267
    Ce1  Ce4+  1.0000  0.947030  0.405870  0.000000  Uiso  0.001267
    Ce1  Ce4+  1.0000  0.135290  0.676450  0.000000  Uiso  0.001267
    Ce1  Ce4+  1.0000  0.405870  0.676450  0.000000  Uiso  0.001267
    Ce1  Ce4+  1.0000  0.676450  0.676450  0.000000  Uiso  0.001267
    Ce1  Ce4+  1.0000  0.947030  0.676450  0.000000  Uiso  0.001267
    Ce1  Ce4+  1.0000  0.135290  0.947030  0.000000  Uiso  0.001267
    Ce1  Ce4+  1.0000  0.405870  0.947030  0.000000  Uiso  0.001267
    Ce1  Ce4+  1.0000  0.676450  0.947030  0.000000  Uiso  0.001267
    Ce1  Ce4+  1.0000  0.947030  0.947030  0.000000  Uiso  0.001267
    Ce1  Ce4+  1.0000  0.135290  0.135290  0.033820  Uiso  0.001267
    Ce1  Ce4+  1.0000  0.405870  0.135290  0.033820  Uiso  0.001267
    Ce1  Ce4+  1.0000  0.676450  0.135290  0.033820  Uiso  0.001267
    Ce1  Ce4+  1.0000  0.947030  0.135290  0.033820  Uiso  0.001267
    Ce1  Ce4+  1.0000  0.135290  0.405870  0.033820  Uiso  0.001267
    Ce1  Ce4+  1.0000  0.405870  0.405870  0.033820  Uiso  0.001267
    Ce1  Ce4+  1.0000  0.676450  0.405870  0.033820  Uiso  0.001267
    Ce1  Ce4+  1.0000  0.947030  0.405870  0.033820  Uiso  0.001267
    Ce1  Ce4+  1.0000  0.135290  0.676450  0.033820  Uiso  0.001267
    Ce1  Ce4+  1.0000  0.405870  0.676450  0.033820  Uiso  0.001267
    Ce1  Ce4+  1.0000  0.676450  0.676450  0.033820  Uiso  0.001267
    Ce1  Ce4+  1.0000  0.947030  0.676450  0.033820  Uiso  0.001267
    Ce1  Ce4+  1.0000  0.135290  0.947030  0.033820  Uiso  0.001267
    Ce1  Ce4+  1.0000  0.405870  0.947030  0.033820  Uiso  0.001267
    Ce1  Ce4+  1.0000  0.676450  0.947030  0.033820  Uiso  0.001267
    Ce1  Ce4+  1.0000  0.947030  0.947030  0.033820  Uiso  0.001267
    Ce1  Ce4+  1.0000  0.135290  0.135290  0.067650  Uiso  0.001267
    Ce1  Ce4+  1.0000  0.405870  0.135290  0.067650  Uiso  0.001267
    Ce1  Ce4+  1.0000  0.676450  0.135290  0.067650  Uiso  0.001267
    Ce1  Ce4+  1.0000  0.947030  0.135290  0.067650  Uiso  0.001267
    Ce1  Ce4+  1.0000  0.135290  0.405870  0.067650  Uiso  0.001267
    Ce1  Ce4+  1.0000  0.405870  0.405870  0.067650  Uiso  0.001267
    Ce1  Ce4+  1.0000  0.676450  0.405870  0.067650  Uiso  0.001267
    Ce1  Ce4+  1.0000  0.947030  0.405870  0.067650  Uiso  0.001267
    Ce1  Ce4+  1.0000  0.135290  0.676450  0.067650  Uiso  0.001267
    Ce1  Ce4+  1.0000  0.405870  0.676450  0.067650  Uiso  0.001267
    Ce1  Ce4+  1.0000  0.676450  0.676450  0.067650  Uiso  0.001267
    Ce1  Ce4+  1.0000  0.947030  0.676450  0.067650  Uiso  0.001267
    Ce1  Ce4+  1.0000  0.135290  0.947030  0.067650  Uiso  0.001267
    Ce1  Ce4+  1.0000  0.405870  0.947030  0.067650  Uiso  0.001267
    Ce1  Ce4+  1.0000  0.676450  0.947030  0.067650  Uiso  0.001267
    Ce1  Ce4+  1.0000  0.947030  0.947030  0.067650  Uiso  0.001267
    Ce1  Ce4+  1.0000  0.135290  0.135290  0.101470  Uiso  0.001267
    Ce1  Ce4+  1.0000  0.405870  0.135290  0.101470  Uiso  0.001267
    Ce1  Ce4+  1.0000  0.676450  0.135290  0.101470  Uiso  0.001267
    Ce1  Ce4+  1.0000  0.947030  0.135290  0.101470  Uiso  0.001267
    Ce1  Ce4+  1.0000  0.135290  0.405870  0.101470  Uiso  0.001267
    Ce1  Ce4+  1.0000  0.405870  0.405870  0.101470  Uiso  0.001267
    Ce1  Ce4+  1.0000  0.676450  0.405870  0.101470  Uiso  0.001267
    Ce1  Ce4+  1.0000  0.947030  0.405870  0.101470  Uiso  0.001267
    Ce1  Ce4+  1.0000  0.135290  0.676450  0.101470  Uiso  0.001267
    Ce1  Ce4+  1.0000  0.405870  0.676450  0.101470  Uiso  0.001267
    Ce1  Ce4+  1.0000  0.676450  0.676450  0.101470  Uiso  0.001267
    Ce1  Ce4+  1.0000  0.947030  0.676450  0.101470  Uiso  0.001267
    Ce1  Ce4+  1.0000  0.135290  0.947030  0.101470  Uiso  0.001267
    Ce1  Ce4+  1.0000  0.405870  0.947030  0.101470  Uiso  0.001267
    Ce1  Ce4+  1.0000  0.676450  0.947030  0.101470  Uiso  0.001267
    Ce1  Ce4+  1.0000  0.947030  0.947030  0.101470  Uiso  0.001267
    Ce1  Ce4+  1.0000  0.135290  0.135290  0.135290  Uiso  0.001267
    Ce1  Ce4+  1.0000  0.405870  0.135290  0.135290  Uiso  0.001267
    Ce1  Ce4+  1.0000  0.676450  0.135290  0.135290  Uiso  0.001267
    Ce1  Ce4+  1.0000  0.947030  0.135290  0.135290  Uiso  0.001267
    Ce1  Ce4+  1.0000  0.135290  0.405870  0.135290  Uiso  0.001267
    Ce1  Ce4+  1.0000  0.405870  0.405870  0.135290  Uiso  0.001267
    Ce1  Ce4+  1.0000  0.676450  0.405870  0.135290  Uiso  0.001267
    Ce1  Ce4+  1.0000  0.947030  0.405870  0.135290  Uiso  0.001267
    Ce1  Ce4+  1.0000  0.135290  0.676450  0.135290  Uiso  0.001267
    Ce1  Ce4+  1.0000  0.405870  0.676450  0.135290  Uiso  0.001267
    Ce1  Ce4+  1.0000  0.676450  0.676450  0.135290  Uiso  0.001267
    Ce1  Ce4+  1.0000  0.947030  0.676450  0.135290  Uiso  0.001267
    Ce1  Ce4+  1.0000  0.135290  0.947030  0.135290  Uiso  0.001267
    Ce1  Ce4+  1.0000  0.405870  0.947030  0.135290  Uiso  0.001267
    Ce1  Ce4+  1.0000  0.676450  0.947030  0.135290  Uiso  0.001267
    Ce1  Ce4+  1.0000  0.947030  0.947030  0.135290  Uiso  0.001267
    Ce1  Ce4+  1.0000  0.135290  0.135290  0.169110  Uiso  0.001267
    Ce1  Ce4+  1.0000  0.405870  0.135290  0.169110  Uiso  0.001267
    Ce1  Ce4+  1.0000  0.676450  0.135290  0.169110  Uiso  0.001267
    Ce1  Ce4+  1.0000  0.947030  0.135290  0.169110  Uiso  0.001267
    Ce1  Ce4+  1.0000  0.135290  0.405870  0.169110  Uiso  0.001267
    Ce1  Ce4+  1.0000  0.405870  0.405870  0.169110  Uiso  0.001267
    Ce1  Ce4+  1.0000  0.676450  0.405870  0.169110  Uiso  0.001267
    Ce1  Ce4+  1.0000  0.947030  0.405870  0.169110  Uiso  0.001267
    Ce1  Ce4+  1.0000  0.135290  0.676450  0.169110  Uiso  0.001267
    Ce1  Ce4+  1.0000  0.405870  0.676450  0.169110  Uiso  0.001267
    Ce1  Ce4+  1.0000  0.676450  0.676450  0.169110  Uiso  0.001267
    Ce1  Ce4+  1.0000  0.947030  0.676450  0.169110  Uiso  0.001267
    Ce1  Ce4+  1.0000  0.135290  0.947030  0.169110  Uiso  0.001267
    Ce1  Ce4+  1.0000  0.405870  0.947030  0.169110  Uiso  0.001267
    Ce1  Ce4+  1.0000  0.676450  0.947030  0.169110  Uiso  0.001267
    Ce1  Ce4+  1.0000  0.947030  0.947030  0.169110  Uiso  0.001267
    Ce1  Ce4+  1.0000  0.135290  0.135290  0.202940  Uiso  0.001267
    Ce1  Ce4+  1.0000  0.405870  0.135290  0.202940  Uiso  0.001267
    Ce1  Ce4+  1.0000  0.676450  0.135290  0.202940  Uiso  0.001267
    Ce1  Ce4+  1.0000  0.947030  0.135290  0.202940  Uiso  0.001267
    Ce1  Ce4+  1.0000  0.135290  0.405870  0.202940  Uiso  0.001267
    Ce1  Ce4+  1.0000  0.405870  0.405870  0.202940  Uiso  0.001267
    Ce1  Ce4+  1.0000  0.676450  0.405870  0.202940  Uiso  0.001267
    Ce1  Ce4+  1.0000  0.947030  0.405870  0.202940  Uiso  0.001267
    Ce1  Ce4+  1.0000  0.135290  0.676450  0.202940  Uiso  0.001267
    Ce1  Ce4+  1.0000  0.405870  0.676450  0.202940  Uiso  0.001267
    Ce1  Ce4+  1.0000  0.676450  0.676450  0.202940  Uiso  0.001267
    Ce1  Ce4+  1.0000  0.947030  0.676450  0.202940  Uiso  0.001267
    Ce1  Ce4+  1.0000  0.135290  0.947030  0.202940  Uiso  0.001267
    Ce1  Ce4+  1.0000  0.405870  0.947030  0.202940  Uiso  0.001267
    Ce1  Ce4+  1.0000  0.676450  0.947030  0.202940  Uiso  0.001267
    Ce1  Ce4+  1.0000  0.947030  0.947030  0.202940  Uiso  0.001267
    Ce1  Ce4+  1.0000  0.135290  0.135290  0.236760  Uiso  0.001267
    Ce1  Ce4+  1.0000  0.405870  0.135290  0.236760  Uiso  0.001267
    Ce1  Ce4+  1.0000  0.676450  0.135290  0.236760  Uiso  0.001267
    Ce1  Ce4+  1.0000  0.947030  0.135290  0.236760  Uiso  0.001267
    Ce1  Ce4+  1.0000  0.135290  0.405870  0.236760  Uiso  0.001267
    Ce1  Ce4+  1.0000  0.405870  0.405870  0.236760  Uiso  0.001267
    Ce1  Ce4+  1.0000  0.676450  0.405870  0.236760  Uiso  0.001267
    Ce1  Ce4+  1.0000  0.947030  0.405870  0.236760  Uiso  0.001267
    Ce1  Ce4+  1.0000  0.135290  0.676450  0.236760  Uiso  0.001267
    Ce1  Ce4+  1.0000  0.405870  0.676450  0.236760  Uiso  0.001267
    Ce1  Ce4+  1.0000  0.676450  0.676450  0.236760  Uiso  0.001267
    Ce1  Ce4+  1.0000  0.947030  0.676450  0.236760  Uiso  0.001267
    Ce1  Ce4+  1.0000  0.135290  0.947030  0.236760  Uiso  0.001267
    Ce1  Ce4+  1.0000  0.405870  0.947030  0.236760  Uiso  0.001267
    Ce1  Ce4+  1.0000  0.676450  0.947030  0.236760  Uiso  0.001267
    Ce1  Ce4+  1.0000  0.947030  0.947030  0.236760  Uiso  0.001267
    Ce1  Ce4+  1.0000  0.135290  0.135290  0.270580  Uiso  0.001267
    Ce1  Ce4+  1.0000  0.405870  0.135290  0.270580  Uiso  0.001267
    Ce1  Ce4+  1.0000  0.676450  0.135290  0.270580  Uiso  0.001267
    Ce1  Ce4+  1.0000  0.947030  0.135290  0.270580  Uiso  0.001267
    Ce1  Ce4+  1.0000  0.135290  0.405870  0.270580  Uiso  0.001267
    Ce1  Ce4+  1.0000  0.405870  0.405870  0.270580  Uiso  0.001267
    Ce1  Ce4+  1.0000  0.676450  0.405870  0.270580  Uiso  0.001267
    Ce1  Ce4+  1.0000  0.947030  0.405870  0.270580  Uiso  0.001267
    Ce1  Ce4+  1.0000  0.135290  0.676450  0.270580  Uiso  0.001267
    Ce1  Ce4+  1.0000  0.405870  0.676450  0.270580  Uiso  0.001267
    Ce1  Ce4+  1.0000  0.676450  0.676450  0.270580  Uiso  0.001267
    Ce1  Ce4+  1.0000  0.947030  0.676450  0.270580  Uiso  0.001267
    Ce1  Ce4+  1.0000  0.135290  0.947030  0.270580  Uiso  0.001267
    Ce1  Ce4+  1.0000  0.405870  0.947030  0.270580  Uiso  0.001267
    Ce1  Ce4+  1.0000  0.676450  0.947030  0.270580  Uiso  0.001267
    Ce1  Ce4+  1.0000  0.947030  0.947030  0.270580  Uiso  0.001267
    Ce1  Ce4+  1.0000  0.135290  0.135290  0.304400  Uiso  0.001267
    Ce1  Ce4+  1.0000  0.405870  0.135290  0.304400  Uiso  0.001267
    Ce1  Ce4+  1.0000  0.676450  0.135290  0.304400  Uiso  0.001267
    Ce1  Ce4+  1.0000  0.947030  0.135290  0.304400  Uiso  0.001267
    Ce1  Ce4+  1.0000  0.135290  0.405870  0.304400  Uiso  0.001267
    Ce1  Ce4+  1.0000  0.405870  0.405870  0.304400  Uiso  0.001267
    Ce1  Ce4+  1.0000  0.676450  0.405870  0.304400  Uiso  0.001267
    Ce1  Ce4+  1.0000  0.947030  0.405870  0.304400  Uiso  0.001267
    Ce1  Ce4+  1.0000  0.135290  0.676450  0.304400  Uiso  0.001267
    Ce1  Ce4+  1.0000  0.405870  0.676450  0.304400  Uiso  0.001267
    Ce1  Ce4+  1.0000  0.676450  0.676450  0.304400  Uiso  0.001267
    Ce1  Ce4+  1.0000  0.947030  0.676450  0.304400  Uiso  0.001267
    Ce1  Ce4+  1.0000  0.135290  0.947030  0.304400  Uiso  0.001267
    Ce1  Ce4+  1.0000  0.405870  0.947030  0.304400  Uiso  0.001267
    Ce1  Ce4+  1.0000  0.676450  0.947030  0.304400  Uiso  0.001267
    Ce1  Ce4+  1.0000  0.947030  0.947030  0.304400  Uiso  0.001267
    Ce1  Ce4+  1.0000  0.135290  0.135290  0.338230  Uiso  0.001267
    Ce1  Ce4+  1.0000  0.405870  0.135290  0.338230  Uiso  0.001267
    Ce1  Ce4+  1.0000  0.676450  0.135290  0.338230  Uiso  0.001267
    Ce1  Ce4+  1.0000  0.947030  0.135290  0.338230  Uiso  0.001267
    Ce1  Ce4+  1.0000  0.135290  0.405870  0.338230  Uiso  0.001267
    Ce1  Ce4+  1.0000  0.405870  0.405870  0.338230  Uiso  0.001267
    Ce1  Ce4+  1.0000  0.676450  0.405870  0.338230  Uiso  0.001267
    Ce1  Ce4+  1.0000  0.947030  0.405870  0.338230  Uiso  0.001267
    Ce1  Ce4+  1.0000  0.135290  0.676450  0.338230  Uiso  0.001267
    Ce1  Ce4+  1.0000  0.405870  0.676450  0.338230  Uiso  0.001267
    Ce1  Ce4+  1.0000  0.676450  0.676450  0.338230  Uiso  0.001267
    Ce1  Ce4+  1.0000  0.947030  0.676450  0.338230  Uiso  0.001267
    Ce1  Ce4+  1.0000  0.135290  0.947030  0.338230  Uiso  0.001267
    Ce1  Ce4+  1.0000  0.405870  0.947030  0.338230  Uiso  0.001267
    Ce1  Ce4+  1.0000  0.676450  0.947030  0.338230  Uiso  0.001267
    Ce1  Ce4+  1.0000  0.947030  0.947030  0.338230  Uiso  0.001267
    Ce1  Ce4+  1.0000  0.135290  0.135290  0.372050  Uiso  0.001267
    Ce1  Ce4+  1.0000  0.405870  0.135290  0.372050  Uiso  0.001267
    Ce1  Ce4+  1.0000  0.676450  0.135290  0.372050  Uiso  0.001267
    Ce1  Ce4+  1.0000  0.947030  0.135290  0.372050  Uiso  0.001267
    Ce1  Ce4+  1.0000  0.135290  0.405870  0.372050  Uiso  0.001267
    Ce1  Ce4+  1.0000  0.405870  0.405870  0.372050  Uiso  0.001267
    Ce1  Ce4+  1.0000  0.676450  0.405870  0.372050  Uiso  0.001267
    Ce1  Ce4+  1.0000  0.947030  0.405870  0.372050  Uiso  0.001267
    Ce1  Ce4+  1.0000  0.135290  0.676450  0.372050  Uiso  0.001267
    Ce1  Ce4+  1.0000  0.405870  0.676450  0.372050  Uiso  0.001267
    Ce1  Ce4+  1.0000  0.676450  0.676450  0.372050  Uiso  0.001267
    Ce1  Ce4+  1.0000  0.947030  0.676450  0.372050  Uiso  0.001267
    Ce1  Ce4+  1.0000  0.135290  0.947030  0.372050  Uiso  0.001267
    Ce1  Ce4+  1.0000  0.405870  0.947030  0.372050  Uiso  0.001267
    Ce1  Ce4+  1.0000  0.676450  0.947030  0.372050  Uiso  0.001267
    Ce1  Ce4+  1.0000  0.947030  0.947030  0.372050  Uiso  0.001267
    Ce1  Ce4+  1.0000  0.135290  0.135290  0.405870  Uiso  0.001267
    Ce1  Ce4+  1.0000  0.405870  0.135290  0.405870  Uiso  0.001267
    Ce1  Ce4+  1.0000  0.676450  0.135290  0.405870  Uiso  0.001267
    Ce1  Ce4+  1.0000  0.947030  0.135290  0.405870  Uiso  0.001267
    Ce1  Ce4+  1.0000  0.135290  0.405870  0.405870  Uiso  0.001267
    Ce1  Ce4+  1.0000  0.405870  0.405870  0.405870  Uiso  0.001267
    Ce1  Ce4+  1.0000  0.676450  0.405870  0.405870  Uiso  0.001267
    Ce1  Ce4+  1.0000  0.947030  0.405870  0.405870  Uiso  0.001267
    Ce1  Ce4+  1.0000  0.135290  0.676450  0.405870  Uiso  0.001267
    Ce1  Ce4+  1.0000  0.405870  0.676450  0.405870  Uiso  0.001267
    Ce1  Ce4+  1.0000  0.676450  0.676450  0.405870  Uiso  0.001267
    Ce1  Ce4+  1.0000  0.947030  0.676450  0.405870  Uiso  0.001267
    Ce1  Ce4+  1.0000  0.135290  0.947030  0.405870  Uiso  0.001267
    Ce1  Ce4+  1.0000  0.405870  0.947030  0.405870  Uiso  0.001267
    Ce1  Ce4+  1.0000  0.676450  0.947030  0.405870  Uiso  0.001267
    Ce1  Ce4+  1.0000  0.947030  0.947030  0.405870  Uiso  0.001267
    Ce1  Ce4+  1.0000  0.135290  0.135290  0.439690  Uiso  0.001267
    Ce1  Ce4+  1.0000  0.405870  0.135290  0.439690  Uiso  0.001267
    Ce1  Ce4+  1.0000  0.676450  0.135290  0.439690  Uiso  0.001267
    Ce1  Ce4+  1.0000  0.947030  0.135290  0.439690  Uiso  0.001267
    Ce1  Ce4+  1.0000  0.135290  0.405870  0.439690  Uiso  0.001267
    Ce1  Ce4+  1.0000  0.405870  0.405870  0.439690  Uiso  0.001267
    Ce1  Ce4+  1.0000  0.676450  0.405870  0.439690  Uiso  0.001267
    Ce1  Ce4+  1.0000  0.947030  0.405870  0.439690  Uiso  0.001267
    Ce1  Ce4+  1.0000  0.135290  0.676450  0.439690  Uiso  0.001267
    Ce1  Ce4+  1.0000  0.405870  0.676450  0.439690  Uiso  0.001267
    Ce1  Ce4+  1.0000  0.676450  0.676450  0.439690  Uiso  0.001267
    Ce1  Ce4+  1.0000  0.947030  0.676450  0.439690  Uiso  0.001267
    Ce1  Ce4+  1.0000  0.135290  0.947030  0.439690  Uiso  0.001267
    Ce1  Ce4+  1.0000  0.405870  0.947030  0.439690  Uiso  0.001267
    Ce1  Ce4+  1.0000  0.676450  0.947030  0.439690  Uiso  0.001267
    Ce1  Ce4+  1.0000  0.947030  0.947030  0.439690  Uiso  0.001267
    Ce1  Ce4+  1.0000  0.135290  0.135290  0.473520  Uiso  0.001267
    Ce1  Ce4+  1.0000  0.405870  0.135290  0.473520  Uiso  0.001267
    Ce1  Ce4+  1.0000  0.676450  0.135290  0.473520  Uiso  0.001267
    Ce1  Ce4+  1.0000  0.947030  0.135290  0.473520  Uiso  0.001267
    Ce1  Ce4+  1.0000  0.135290  0.405870  0.473520  Uiso  0.001267
    Ce1  Ce4+  1.0000  0.405870  0.405870  0.473520  Uiso  0.001267
    Ce1  Ce4+  1.0000  0.676450  0.405870  0.473520  Uiso  0.001267
    Ce1  Ce4+  1.0000  0.947030  0.405870  0.473520  Uiso  0.001267
    Ce1  Ce4+  1.0000  0.135290  0.676450  0.473520  Uiso  0.001267
    Ce1  Ce4+  1.0000  0.405870  0.676450  0.473520  Uiso  0.001267
    Ce1  Ce4+  1.0000  0.676450  0.676450  0.473520  Uiso  0.001267
    Ce1  Ce4+  1.0000  0.947030  0.676450  0.473520  Uiso  0.001267
    Ce1  Ce4+  1.0000  0.135290  0.947030  0.473520  Uiso  0.001267
    Ce1  Ce4+  1.0000  0.405870  0.947030  0.473520  Uiso  0.001267
    Ce1  Ce4+  1.0000  0.676450  0.947030  0.473520  Uiso  0.001267
    Ce1  Ce4+  1.0000  0.947030  0.947030  0.473520  Uiso  0.001267
    Ce1  Ce4+  1.0000  0.135290  0.135290  0.507340  Uiso  0.001267
    Ce1  Ce4+  1.0000  0.405870  0.135290  0.507340  Uiso  0.001267
    Ce1  Ce4+  1.0000  0.676450  0.135290  0.507340  Uiso  0.001267
    Ce1  Ce4+  1.0000  0.947030  0.135290  0.507340  Uiso  0.001267
    Ce1  Ce4+  1.0000  0.135290  0.405870  0.507340  Uiso  0.001267
    Ce1  Ce4+  1.0000  0.405870  0.405870  0.507340  Uiso  0.001267
    Ce1  Ce4+  1.0000  0.676450  0.405870  0.507340  Uiso  0.001267
    Ce1  Ce4+  1.0000  0.947030  0.405870  0.507340  Uiso  0.001267
    Ce1  Ce4+  1.0000  0.135290  0.676450  0.507340  Uiso  0.001267
    Ce1  Ce4+  1.0000  0.405870  0.676450  0.507340  Uiso  0.001267
    Ce1  Ce4+  1.0000  0.676450  0.676450  0.507340  Uiso  0.001267
    Ce1  Ce4+  1.0000  0.947030  0.676450  0.507340  Uiso  0.001267
    Ce1  Ce4+  1.0000  0.135290  0.947030  0.507340  Uiso  0.001267
    Ce1  Ce4+  1.0000  0.405870  0.947030  0.507340  Uiso  0.001267
    Ce1  Ce4+  1.0000  0.676450  0.947030  0.507340  Uiso  0.001267
    Ce1  Ce4+  1.0000  0.947030  0.947030  0.507340  Uiso  0.001267
    Ce1  Ce4+  1.0000  0.135290  0.135290  0.541160  Uiso  0.001267
    Ce1  Ce4+  1.0000  0.405870  0.135290  0.541160  Uiso  0.001267
    Ce1  Ce4+  1.0000  0.676450  0.135290  0.541160  Uiso  0.001267
    Ce1  Ce4+  1.0000  0.947030  0.135290  0.541160  Uiso  0.001267
    Ce1  Ce4+  1.0000  0.135290  0.405870  0.541160  Uiso  0.001267
    Ce1  Ce4+  1.0000  0.405870  0.405870  0.541160  Uiso  0.001267
    Ce1  Ce4+  1.0000  0.676450  0.405870  0.541160  Uiso  0.001267
    Ce1  Ce4+  1.0000  0.947030  0.405870  0.541160  Uiso  0.001267
    Ce1  Ce4+  1.0000  0.135290  0.676450  0.541160  Uiso  0.001267
    Ce1  Ce4+  1.0000  0.405870  0.676450  0.541160  Uiso  0.001267
    Ce1  Ce4+  1.0000  0.676450  0.676450  0.541160  Uiso  0.001267
    Ce1  Ce4+  1.0000  0.947030  0.676450  0.541160  Uiso  0.001267
    Ce1  Ce4+  1.0000  0.135290  0.947030  0.541160  Uiso  0.001267
    Ce1  Ce4+  1.0000  0.405870  0.947030  0.541160  Uiso  0.001267
    Ce1  Ce4+  1.0000  0.676450  0.947030  0.541160  Uiso  0.001267
    Ce1  Ce4+  1.0000  0.947030  0.947030  0.541160  Uiso  0.001267
    Ce1  Ce4+  1.0000  0.135290  0.135290  0.574980  Uiso  0.001267
    Ce1  Ce4+  1.0000  0.405870  0.135290  0.574980  Uiso  0.001267
    Ce1  Ce4+  1.0000  0.676450  0.135290  0.574980  Uiso  0.001267
    Ce1  Ce4+  1.0000  0.947030  0.135290  0.574980  Uiso  0.001267
    Ce1  Ce4+  1.0000  0.135290  0.405870  0.574980  Uiso  0.001267
    Ce1  Ce4+  1.0000  0.405870  0.405870  0.574980  Uiso  0.001267
    Ce1  Ce4+  1.0000  0.676450  0.405870  0.574980  Uiso  0.001267
    Ce1  Ce4+  1.0000  0.947030  0.405870  0.574980  Uiso  0.001267
    Ce1  Ce4+  1.0000  0.135290  0.676450  0.574980  Uiso  0.001267
    Ce1  Ce4+  1.0000  0.405870  0.676450  0.574980  Uiso  0.001267
    Ce1  Ce4+  1.0000  0.676450  0.676450  0.574980  Uiso  0.001267
    Ce1  Ce4+  1.0000  0.947030  0.676450  0.574980  Uiso  0.001267
    Ce1  Ce4+  1.0000  0.135290  0.947030  0.574980  Uiso  0.001267
    Ce1  Ce4+  1.0000  0.405870  0.947030  0.574980  Uiso  0.001267
    Ce1  Ce4+  1.0000  0.676450  0.947030  0.574980  Uiso  0.001267
    Ce1  Ce4+  1.0000  0.947030  0.947030  0.574980  Uiso  0.001267
    Ce1  Ce4+  1.0000  0.135290  0.135290  0.608810  Uiso  0.001267
    Ce1  Ce4+  1.0000  0.405870  0.135290  0.608810  Uiso  0.001267
    Ce1  Ce4+  1.0000  0.676450  0.135290  0.608810  Uiso  0.001267
    Ce1  Ce4+  1.0000  0.947030  0.135290  0.608810  Uiso  0.001267
    Ce1  Ce4+  1.0000  0.135290  0.405870  0.608810  Uiso  0.001267
    Ce1  Ce4+  1.0000  0.405870  0.405870  0.608810  Uiso  0.001267
    Ce1  Ce4+  1.0000  0.676450  0.405870  0.608810  Uiso  0.001267
    Ce1  Ce4+  1.0000  0.947030  0.405870  0.608810  Uiso  0.001267
    Ce1  Ce4+  1.0000  0.135290  0.676450  0.608810  Uiso  0.001267
    Ce1  Ce4+  1.0000  0.405870  0.676450  0.608810  Uiso  0.001267
    Ce1  Ce4+  1.0000  0.676450  0.676450  0.608810  Uiso  0.001267
    Ce1  Ce4+  1.0000  0.947030  0.676450  0.608810  Uiso  0.001267
    Ce1  Ce4+  1.0000  0.135290  0.947030  0.608810  Uiso  0.001267
    Ce1  Ce4+  1.0000  0.405870  0.947030  0.608810  Uiso  0.001267
    Ce1  Ce4+  1.0000  0.676450  0.947030  0.608810  Uiso  0.001267
    Ce1  Ce4+  1.0000  0.947030  0.947030  0.608810  Uiso  0.001267
    Ce1  Ce4+  1.0000  0.135290  0.135290  0.642630  Uiso  0.001267
    Ce1  Ce4+  1.0000  0.405870  0.135290  0.642630  Uiso  0.001267
    Ce1  Ce4+  1.0000  0.676450  0.135290  0.642630  Uiso  0.001267
    Ce1  Ce4+  1.0000  0.947030  0.135290  0.642630  Uiso  0.001267
    Ce1  Ce4+  1.0000  0.135290  0.405870  0.642630  Uiso  0.001267
    Ce1  Ce4+  1.0000  0.405870  0.405870  0.642630  Uiso  0.001267
    Ce1  Ce4+  1.0000  0.676450  0.405870  0.642630  Uiso  0.001267
    Ce1  Ce4+  1.0000  0.947030  0.405870  0.642630  Uiso  0.001267
    Ce1  Ce4+  1.0000  0.135290  0.676450  0.642630  Uiso  0.001267
    Ce1  Ce4+  1.0000  0.405870  0.676450  0.642630  Uiso  0.001267
    Ce1  Ce4+  1.0000  0.676450  0.676450  0.642630  Uiso  0.001267
    Ce1  Ce4+  1.0000  0.947030  0.676450  0.642630  Uiso  0.001267
    Ce1  Ce4+  1.0000  0.135290  0.947030  0.642630  Uiso  0.001267
    Ce1  Ce4+  1.0000  0.405870  0.947030  0.642630  Uiso  0.001267
    Ce1  Ce4+  1.0000  0.676450  0.947030  0.642630  Uiso  0.001267
    Ce1  Ce4+  1.0000  0.947030  0.947030  0.642630  Uiso  0.001267
    Ce1  Ce4+  1.0000  0.135290  0.135290  0.676450  Uiso  0.001267
    Ce1  Ce4+  1.0000  0.405870  0.135290  0.676450  Uiso  0.001267
    Ce1  Ce4+  1.0000  0.676450  0.135290  0.676450  Uiso  0.001267
    Ce1  Ce4+  1.0000  0.947030  0.135290  0.676450  Uiso  0.001267
    Ce1  Ce4+  1.0000  0.135290  0.405870  0.676450  Uiso  0.001267
    Ce1  Ce4+  1.0000  0.405870  0.405870  0.676450  Uiso  0.001267
    Ce1  Ce4+  1.0000  0.676450  0.405870  0.676450  Uiso  0.001267
    Ce1  Ce4+  1.0000  0.947030  0.405870  0.676450  Uiso  0.001267
    Ce1  Ce4+  1.0000  0.135290  0.676450  0.676450  Uiso  0.001267
    Ce1  Ce4+  1.0000  0.405870  0.676450  0.676450  Uiso  0.001267
    Ce1  Ce4+  1.0000  0.676450  0.676450  0.676450  Uiso  0.001267
    Ce1  Ce4+  1.0000  0.947030  0.676450  0.676450  Uiso  0.001267
    Ce1  Ce4+  1.0000  0.135290  0.947030  0.676450  Uiso  0.001267
    Ce1  Ce4+  1.0000  0.405870  0.947030  0.676450  Uiso  0.001267
    Ce1  Ce4+  1.0000  0.676450  0.947030  0.676450  Uiso  0.001267
    Ce1  Ce4+  1.0000  0.947030  0.947030  0.676450  Uiso  0.001267
    Ce1  Ce4+  1.0000  0.135290  0.135290  0.710270  Uiso  0.001267
    Ce1  Ce4+  1.0000  0.405870  0.135290  0.710270  Uiso  0.001267
    Ce1  Ce4+  1.0000  0.676450  0.135290  0.710270  Uiso  0.001267
    Ce1  Ce4+  1.0000  0.947030  0.135290  0.710270  Uiso  0.001267
    Ce1  Ce4+  1.0000  0.135290  0.405870  0.710270  Uiso  0.001267
    Ce1  Ce4+  1.0000  0.405870  0.405870  0.710270  Uiso  0.001267
    Ce1  Ce4+  1.0000  0.676450  0.405870  0.710270  Uiso  0.001267
    Ce1  Ce4+  1.0000  0.947030  0.405870  0.710270  Uiso  0.001267
    Ce1  Ce4+  1.0000  0.135290  0.676450  0.710270  Uiso  0.001267
    Ce1  Ce4+  1.0000  0.405870  0.676450  0.710270  Uiso  0.001267
    Ce1  Ce4+  1.0000  0.676450  0.676450  0.710270  Uiso  0.001267
    Ce1  Ce4+  1.0000  0.947030  0.676450  0.710270  Uiso  0.001267
    Ce1  Ce4+  1.0000  0.135290  0.947030  0.710270  Uiso  0.001267
    Ce1  Ce4+  1.0000  0.405870  0.947030  0.710270  Uiso  0.001267
    Ce1  Ce4+  1.0000  0.676450  0.947030  0.710270  Uiso  0.001267
    Ce1  Ce4+  1.0000  0.947030  0.947030  0.710270  Uiso  0.001267
    Ce1  Ce4+  1.0000  0.135290  0.135290  0.744100  Uiso  0.001267
    Ce1  Ce4+  1.0000  0.405870  0.135290  0.744100  Uiso  0.001267
    Ce1  Ce4+  1.0000  0.676450  0.135290  0.744100  Uiso  0.001267
    Ce1  Ce4+  1.0000  0.947030  0.135290  0.744100  Uiso  0.001267
    Ce1  Ce4+  1.0000  0.135290  0.405870  0.744100  Uiso  0.001267
    Ce1  Ce4+  1.0000  0.405870  0.405870  0.744100  Uiso  0.001267
    Ce1  Ce4+  1.0000  0.676450  0.405870  0.744100  Uiso  0.001267
    Ce1  Ce4+  1.0000  0.947030  0.405870  0.744100  Uiso  0.001267
    Ce1  Ce4+  1.0000  0.135290  0.676450  0.744100  Uiso  0.001267
    Ce1  Ce4+  1.0000  0.405870  0.676450  0.744100  Uiso  0.001267
    Ce1  Ce4+  1.0000  0.676450  0.676450  0.744100  Uiso  0.001267
    Ce1  Ce4+  1.0000  0.947030  0.676450  0.744100  Uiso  0.001267
    Ce1  Ce4+  1.0000  0.135290  0.947030  0.744100  Uiso  0.001267
    Ce1  Ce4+  1.0000  0.405870  0.947030  0.744100  Uiso  0.001267
    Ce1  Ce4+  1.0000  0.676450  0.947030  0.744100  Uiso  0.001267
    Ce1  Ce4+  1.0000  0.947030  0.947030  0.744100  Uiso  0.001267
    Ce1  Ce4+  1.0000  0.135290  0.135290  0.777920  Uiso  0.001267
    Ce1  Ce4+  1.0000  0.405870  0.135290  0.777920  Uiso  0.001267
    Ce1  Ce4+  1.0000  0.676450  0.135290  0.777920  Uiso  0.001267
    Ce1  Ce4+  1.0000  0.947030  0.135290  0.777920  Uiso  0.001267
    Ce1  Ce4+  1.0000  0.135290  0.405870  0.777920  Uiso  0.001267
    Ce1  Ce4+  1.0000  0.405870  0.405870  0.777920  Uiso  0.001267
    Ce1  Ce4+  1.0000  0.676450  0.405870  0.777920  Uiso  0.001267
    Ce1  Ce4+  1.0000  0.947030  0.405870  0.777920  Uiso  0.001267
    Ce1  Ce4+  1.0000  0.135290  0.676450  0.777920  Uiso  0.001267
    Ce1  Ce4+  1.0000  0.405870  0.676450  0.777920  Uiso  0.001267
    Ce1  Ce4+  1.0000  0.676450  0.676450  0.777920  Uiso  0.001267
    Ce1  Ce4+  1.0000  0.947030  0.676450  0.777920  Uiso  0.001267
    Ce1  Ce4+  1.0000  0.135290  0.947030  0.777920  Uiso  0.001267
    Ce1  Ce4+  1.0000  0.405870  0.947030  0.777920  Uiso  0.001267
    Ce1  Ce4+  1.0000  0.676450  0.947030  0.777920  Uiso  0.001267
    Ce1  Ce4+  1.0000  0.947030  0.947030  0.777920  Uiso  0.001267
    Ce1  Ce4+  1.0000  0.135290  0.135290  0.811740  Uiso  0.001267
    Ce1  Ce4+  1.0000  0.405870  0.135290  0.811740  Uiso  0.001267
    Ce1  Ce4+  1.0000  0.676450  0.135290  0.811740  Uiso  0.001267
    Ce1  Ce4+  1.0000  0.947030  0.135290  0.811740  Uiso  0.001267
    Ce1  Ce4+  1.0000  0.135290  0.405870  0.811740  Uiso  0.001267
    Ce1  Ce4+  1.0000  0.405870  0.405870  0.811740  Uiso  0.001267
    Ce1  Ce4+  1.0000  0.676450  0.405870  0.811740  Uiso  0.001267
    Ce1  Ce4+  1.0000  0.947030  0.405870  0.811740  Uiso  0.001267
    Ce1  Ce4+  1.0000  0.135290  0.676450  0.811740  Uiso  0.001267
    Ce1  Ce4+  1.0000  0.405870  0.676450  0.811740  Uiso  0.001267
    Ce1  Ce4+  1.0000  0.676450  0.676450  0.811740  Uiso  0.001267
    Ce1  Ce4+  1.0000  0.947030  0.676450  0.811740  Uiso  0.001267
    Ce1  Ce4+  1.0000  0.135290  0.947030  0.811740  Uiso  0.001267
    Ce1  Ce4+  1.0000  0.405870  0.947030  0.811740  Uiso  0.001267
    Ce1  Ce4+  1.0000  0.676450  0.947030  0.811740  Uiso  0.001267
    Ce1  Ce4+  1.0000  0.947030  0.947030  0.811740  Uiso  0.001267
    Ce1  Ce4+  1.0000  0.135290  0.135290  0.845560  Uiso  0.001267
    Ce1  Ce4+  1.0000  0.405870  0.135290  0.845560  Uiso  0.001267
    Ce1  Ce4+  1.0000  0.676450  0.135290  0.845560  Uiso  0.001267
    Ce1  Ce4+  1.0000  0.947030  0.135290  0.845560  Uiso  0.001267
    Ce1  Ce4+  1.0000  0.135290  0.405870  0.845560  Uiso  0.001267
    Ce1  Ce4+  1.0000  0.405870  0.405870  0.845560  Uiso  0.001267
    Ce1  Ce4+  1.0000  0.676450  0.405870  0.845560  Uiso  0.001267
    Ce1  Ce4+  1.0000  0.947030  0.405870  0.845560  Uiso  0.001267
    Ce1  Ce4+  1.0000  0.135290  0.676450  0.845560  Uiso  0.001267
    Ce1  Ce4+  1.0000  0.405870  0.676450  0.845560  Uiso  0.001267
    Ce1  Ce4+  1.0000  0.676450  0.676450  0.845560  Uiso  0.001267
    Ce1  Ce4+  1.0000  0.947030  0.676450  0.845560  Uiso  0.001267
    Ce1  Ce4+  1.0000  0.135290  0.947030  0.845560  Uiso  0.001267
    Ce1  Ce4+  1.0000  0.405870  0.947030  0.845560  Uiso  0.001267
    Ce1  Ce4+  1.0000  0.676450  0.947030  0.845560  Uiso  0.001267
    Ce1  Ce4+  1.0000  0.947030  0.947030  0.845560  Uiso  0.001267
    Ce1  Ce4+  1.0000  0.135290  0.135290  0.879390  Uiso  0.001267
    Ce1  Ce4+  1.0000  0.405870  0.135290  0.879390  Uiso  0.001267
    Ce1  Ce4+  1.0000  0.676450  0.135290  0.879390  Uiso  0.001267
    Ce1  Ce4+  1.0000  0.947030  0.135290  0.879390  Uiso  0.001267
    Ce1  Ce4+  1.0000  0.135290  0.405870  0.879390  Uiso  0.001267
    Ce1  Ce4+  1.0000  0.405870  0.405870  0.879390  Uiso  0.001267
    Ce1  Ce4+  1.0000  0.676450  0.405870  0.879390  Uiso  0.001267
    Ce1  Ce4+  1.0000  0.947030  0.405870  0.879390  Uiso  0.001267
    Ce1  Ce4+  1.0000  0.135290  0.676450  0.879390  Uiso  0.001267
    Ce1  Ce4+  1.0000  0.405870  0.676450  0.879390  Uiso  0.001267
    Ce1  Ce4+  1.0000  0.676450  0.676450  0.879390  Uiso  0.001267
    Ce1  Ce4+  1.0000  0.947030  0.676450  0.879390  Uiso  0.001267
    Ce1  Ce4+  1.0000  0.135290  0.947030  0.879390  Uiso  0.001267
    Ce1  Ce4+  1.0000  0.405870  0.947030  0.879390  Uiso  0.001267
    Ce1  Ce4+  1.0000  0.676450  0.947030  0.879390  Uiso  0.001267
    Ce1  Ce4+  1.0000  0.947030  0.947030  0.879390  Uiso  0.001267
    Ce1  Ce4+  1.0000  0.135290  0.135290  0.913210  Uiso  0.001267
    Ce1  Ce4+  1.0000  0.405870  0.135290  0.913210  Uiso  0.001267
    Ce1  Ce4+  1.0000  0.676450  0.135290  0.913210  Uiso  0.001267
    Ce1  Ce4+  1.0000  0.947030  0.135290  0.913210  Uiso  0.001267
    Ce1  Ce4+  1.0000  0.135290  0.405870  0.913210  Uiso  0.001267
    Ce1  Ce4+  1.0000  0.405870  0.405870  0.913210  Uiso  0.001267
    Ce1  Ce4+  1.0000  0.676450  0.405870  0.913210  Uiso  0.001267
    Ce1  Ce4+  1.0000  0.947030  0.405870  0.913210  Uiso  0.001267
    Ce1  Ce4+  1.0000  0.135290  0.676450  0.913210  Uiso  0.001267
    Ce1  Ce4+  1.0000  0.405870  0.676450  0.913210  Uiso  0.001267
    Ce1  Ce4+  1.0000  0.676450  0.676450  0.913210  Uiso  0.001267
    Ce1  Ce4+  1.0000  0.947030  0.676450  0.913210  Uiso  0.001267
    Ce1  Ce4+  1.0000  0.135290  0.947030  0.913210  Uiso  0.001267
    Ce1  Ce4+  1.0000  0.405870  0.947030  0.913210  Uiso  0.001267
    Ce1  Ce4+  1.0000  0.676450  0.947030  0.913210  Uiso  0.001267
    Ce1  Ce4+  1.0000  0.947030  0.947030  0.913210  Uiso  0.001267
    Ce1  Ce4+  1.0000  0.135290  0.135290  0.947030  Uiso  0.001267
    Ce1  Ce4+  1.0000  0.405870  0.135290  0.947030  Uiso  0.001267
    Ce1  Ce4+  1.0000  0.676450  0.135290  0.947030  Uiso  0.001267
    Ce1  Ce4+  1.0000  0.947030  0.135290  0.947030  Uiso  0.001267
    Ce1  Ce4+  1.0000  0.135290  0.405870  0.947030  Uiso  0.001267
    Ce1  Ce4+  1.0000  0.405870  0.405870  0.947030  Uiso  0.001267
    Ce1  Ce4+  1.0000  0.676450  0.405870  0.947030  Uiso  0.001267
    Ce1  Ce4+  1.0000  0.947030  0.405870  0.947030  Uiso  0.001267
    Ce1  Ce4+  1.0000  0.135290  0.676450  0.947030  Uiso  0.001267
    Ce1  Ce4+  1.0000  0.405870  0.676450  0.947030  Uiso  0.001267
    Ce1  Ce4+  1.0000  0.676450  0.676450  0.947030  Uiso  0.001267
    Ce1  Ce4+  1.0000  0.947030  0.676450  0.947030  Uiso  0.001267
    Ce1  Ce4+  1.0000  0.135290  0.947030  0.947030  Uiso  0.001267
    Ce1  Ce4+  1.0000  0.405870  0.947030  0.947030  Uiso  0.001267
    Ce1  Ce4+  1.0000  0.676450  0.947030  0.947030  Uiso  0.001267
    Ce1  Ce4+  1.0000  0.947030  0.947030  0.947030  Uiso  0.001267
    Ce1  Ce4+  1.0000  0.135290  0.135290  0.980850  Uiso  0.001267
    Ce1  Ce4+  1.0000  0.405870  0.135290  0.980850  Uiso  0.001267
    Ce1  Ce4+  1.0000  0.676450  0.135290  0.980850  Uiso  0.001267
    Ce1  Ce4+  1.0000  0.947030  0.135290  0.980850  Uiso  0.001267
    Ce1  Ce4+  1.0000  0.135290  0.405870  0.980850  Uiso  0.001267
    Ce1  Ce4+  1.0000  0.405870  0.405870  0.980850  Uiso  0.001267
    Ce1  Ce4+  1.0000  0.676450  0.405870  0.980850  Uiso  0.001267
    Ce1  Ce4+  1.0000  0.947030  0.405870  0.980850  Uiso  0.001267
    Ce1  Ce4+  1.0000  0.135290  0.676450  0.980850  Uiso  0.001267
    Ce1  Ce4+  1.0000  0.405870  0.676450  0.980850  Uiso  0.001267
    Ce1  Ce4+  1.0000  0.676450  0.676450  0.980850  Uiso  0.001267
    Ce1  Ce4+  1.0000  0.947030  0.676450  0.980850  Uiso  0.001267
    Ce1  Ce4+  1.0000  0.135290  0.947030  0.980850  Uiso  0.001267
    Ce1  Ce4+  1.0000  0.405870  0.947030  0.980850  Uiso  0.001267
    Ce1  Ce4+  1.0000  0.676450  0.947030  0.980850  Uiso  0.001267
    Ce1  Ce4+  1.0000  0.947030  0.947030  0.980850  Uiso  0.001267
    Ce1  Ce4+  1.0000  0.135290  0.000000  0.016910  Uiso  0.001267
    Ce1  Ce4+  1.0000  0.405870  0.000000  0.016910  Uiso  0.001267
    Ce1  Ce4+  1.0000  0.676450  0.000000  0.016910  Uiso  0.001267
    Ce1  Ce4+  1.0000  0.947030  0.000000  0.016910  Uiso  0.001267
    Ce1  Ce4+  1.0000  0.135290  0.270580  0.016910  Uiso  0.001267
    Ce1  Ce4+  1.0000  0.405870  0.270580  0.016910  Uiso  0.001267
    Ce1  Ce4+  1.0000  0.676450  0.270580  0.016910  Uiso  0.001267
    Ce1  Ce4+  1.0000  0.947030  0.270580  0.016910  Uiso  0.001267
    Ce1  Ce4+  1.0000  0.135290  0.541160  0.016910  Uiso  0.001267
    Ce1  Ce4+  1.0000  0.405870  0.541160  0.016910  Uiso  0.001267
    Ce1  Ce4+  1.0000  0.676450  0.541160  0.016910  Uiso  0.001267
    Ce1  Ce4+  1.0000  0.947030  0.541160  0.016910  Uiso  0.001267
    Ce1  Ce4+  1.0000  0.135290  0.811740  0.016910  Uiso  0.001267
    Ce1  Ce4+  1.0000  0.405870  0.811740  0.016910  Uiso  0.001267
    Ce1  Ce4+  1.0000  0.676450  0.811740  0.016910  Uiso  0.001267
    Ce1  Ce4+  1.0000  0.947030  0.811740  0.016910  Uiso  0.001267
    Ce1  Ce4+  1.0000  0.135290  0.000000  0.050730  Uiso  0.001267
    Ce1  Ce4+  1.0000  0.405870  0.000000  0.050730  Uiso  0.001267
    Ce1  Ce4+  1.0000  0.676450  0.000000  0.050730  Uiso  0.001267
    Ce1  Ce4+  1.0000  0.947030  0.000000  0.050730  Uiso  0.001267
    Ce1  Ce4+  1.0000  0.135290  0.270580  0.050730  Uiso  0.001267
    Ce1  Ce4+  1.0000  0.405870  0.270580  0.050730  Uiso  0.001267
    Ce1  Ce4+  1.0000  0.676450  0.270580  0.050730  Uiso  0.001267
    Ce1  Ce4+  1.0000  0.947030  0.270580  0.050730  Uiso  0.001267
    Ce1  Ce4+  1.0000  0.135290  0.541160  0.050730  Uiso  0.001267
    Ce1  Ce4+  1.0000  0.405870  0.541160  0.050730  Uiso  0.001267
    Ce1  Ce4+  1.0000  0.676450  0.541160  0.050730  Uiso  0.001267
    Ce1  Ce4+  1.0000  0.947030  0.541160  0.050730  Uiso  0.001267
    Ce1  Ce4+  1.0000  0.135290  0.811740  0.050730  Uiso  0.001267
    Ce1  Ce4+  1.0000  0.405870  0.811740  0.050730  Uiso  0.001267
    Ce1  Ce4+  1.0000  0.676450  0.811740  0.050730  Uiso  0.001267
    Ce1  Ce4+  1.0000  0.947030  0.811740  0.050730  Uiso  0.001267
    Ce1  Ce4+  1.0000  0.135290  0.000000  0.084560  Uiso  0.001267
    Ce1  Ce4+  1.0000  0.405870  0.000000  0.084560  Uiso  0.001267
    Ce1  Ce4+  1.0000  0.676450  0.000000  0.084560  Uiso  0.001267
    Ce1  Ce4+  1.0000  0.947030  0.000000  0.084560  Uiso  0.001267
    Ce1  Ce4+  1.0000  0.135290  0.270580  0.084560  Uiso  0.001267
    Ce1  Ce4+  1.0000  0.405870  0.270580  0.084560  Uiso  0.001267
    Ce1  Ce4+  1.0000  0.676450  0.270580  0.084560  Uiso  0.001267
    Ce1  Ce4+  1.0000  0.947030  0.270580  0.084560  Uiso  0.001267
    Ce1  Ce4+  1.0000  0.135290  0.541160  0.084560  Uiso  0.001267
    Ce1  Ce4+  1.0000  0.405870  0.541160  0.084560  Uiso  0.001267
    Ce1  Ce4+  1.0000  0.676450  0.541160  0.084560  Uiso  0.001267
    Ce1  Ce4+  1.0000  0.947030  0.541160  0.084560  Uiso  0.001267
    Ce1  Ce4+  1.0000  0.135290  0.811740  0.084560  Uiso  0.001267
    Ce1  Ce4+  1.0000  0.405870  0.811740  0.084560  Uiso  0.001267
    Ce1  Ce4+  1.0000  0.676450  0.811740  0.084560  Uiso  0.001267
    Ce1  Ce4+  1.0000  0.947030  0.811740  0.084560  Uiso  0.001267
    Ce1  Ce4+  1.0000  0.135290  0.000000  0.118380  Uiso  0.001267
    Ce1  Ce4+  1.0000  0.405870  0.000000  0.118380  Uiso  0.001267
    Ce1  Ce4+  1.0000  0.676450  0.000000  0.118380  Uiso  0.001267
    Ce1  Ce4+  1.0000  0.947030  0.000000  0.118380  Uiso  0.001267
    Ce1  Ce4+  1.0000  0.135290  0.270580  0.118380  Uiso  0.001267
    Ce1  Ce4+  1.0000  0.405870  0.270580  0.118380  Uiso  0.001267
    Ce1  Ce4+  1.0000  0.676450  0.270580  0.118380  Uiso  0.001267
    Ce1  Ce4+  1.0000  0.947030  0.270580  0.118380  Uiso  0.001267
    Ce1  Ce4+  1.0000  0.135290  0.541160  0.118380  Uiso  0.001267
    Ce1  Ce4+  1.0000  0.405870  0.541160  0.118380  Uiso  0.001267
    Ce1  Ce4+  1.0000  0.676450  0.541160  0.118380  Uiso  0.001267
    Ce1  Ce4+  1.0000  0.947030  0.541160  0.118380  Uiso  0.001267
    Ce1  Ce4+  1.0000  0.135290  0.811740  0.118380  Uiso  0.001267
    Ce1  Ce4+  1.0000  0.405870  0.811740  0.118380  Uiso  0.001267
    Ce1  Ce4+  1.0000  0.676450  0.811740  0.118380  Uiso  0.001267
    Ce1  Ce4+  1.0000  0.947030  0.811740  0.118380  Uiso  0.001267
    Ce1  Ce4+  1.0000  0.135290  0.000000  0.152200  Uiso  0.001267
    Ce1  Ce4+  1.0000  0.405870  0.000000  0.152200  Uiso  0.001267
    Ce1  Ce4+  1.0000  0.676450  0.000000  0.152200  Uiso  0.001267
    Ce1  Ce4+  1.0000  0.947030  0.000000  0.152200  Uiso  0.001267
    Ce1  Ce4+  1.0000  0.135290  0.270580  0.152200  Uiso  0.001267
    Ce1  Ce4+  1.0000  0.405870  0.270580  0.152200  Uiso  0.001267
    Ce1  Ce4+  1.0000  0.676450  0.270580  0.152200  Uiso  0.001267
    Ce1  Ce4+  1.0000  0.947030  0.270580  0.152200  Uiso  0.001267
    Ce1  Ce4+  1.0000  0.135290  0.541160  0.152200  Uiso  0.001267
    Ce1  Ce4+  1.0000  0.405870  0.541160  0.152200  Uiso  0.001267
    Ce1  Ce4+  1.0000  0.676450  0.541160  0.152200  Uiso  0.001267
    Ce1  Ce4+  1.0000  0.947030  0.541160  0.152200  Uiso  0.001267
    Ce1  Ce4+  1.0000  0.135290  0.811740  0.152200  Uiso  0.001267
    Ce1  Ce4+  1.0000  0.405870  0.811740  0.152200  Uiso  0.001267
    Ce1  Ce4+  1.0000  0.676450  0.811740  0.152200  Uiso  0.001267
    Ce1  Ce4+  1.0000  0.947030  0.811740  0.152200  Uiso  0.001267
    Ce1  Ce4+  1.0000  0.135290  0.000000  0.186020  Uiso  0.001267
    Ce1  Ce4+  1.0000  0.405870  0.000000  0.186020  Uiso  0.001267
    Ce1  Ce4+  1.0000  0.676450  0.000000  0.186020  Uiso  0.001267
    Ce1  Ce4+  1.0000  0.947030  0.000000  0.186020  Uiso  0.001267
    Ce1  Ce4+  1.0000  0.135290  0.270580  0.186020  Uiso  0.001267
    Ce1  Ce4+  1.0000  0.405870  0.270580  0.186020  Uiso  0.001267
    Ce1  Ce4+  1.0000  0.676450  0.270580  0.186020  Uiso  0.001267
    Ce1  Ce4+  1.0000  0.947030  0.270580  0.186020  Uiso  0.001267
    Ce1  Ce4+  1.0000  0.135290  0.541160  0.186020  Uiso  0.001267
    Ce1  Ce4+  1.0000  0.405870  0.541160  0.186020  Uiso  0.001267
    Ce1  Ce4+  1.0000  0.676450  0.541160  0.186020  Uiso  0.001267
    Ce1  Ce4+  1.0000  0.947030  0.541160  0.186020  Uiso  0.001267
    Ce1  Ce4+  1.0000  0.135290  0.811740  0.186020  Uiso  0.001267
    Ce1  Ce4+  1.0000  0.405870  0.811740  0.186020  Uiso  0.001267
    Ce1  Ce4+  1.0000  0.676450  0.811740  0.186020  Uiso  0.001267
    Ce1  Ce4+  1.0000  0.947030  0.811740  0.186020  Uiso  0.001267
    Ce1  Ce4+  1.0000  0.135290  0.000000  0.219850  Uiso  0.001267
    Ce1  Ce4+  1.0000  0.405870  0.000000  0.219850  Uiso  0.001267
    Ce1  Ce4+  1.0000  0.676450  0.000000  0.219850  Uiso  0.001267
    Ce1  Ce4+  1.0000  0.947030  0.000000  0.219850  Uiso  0.001267
    Ce1  Ce4+  1.0000  0.135290  0.270580  0.219850  Uiso  0.001267
    Ce1  Ce4+  1.0000  0.405870  0.270580  0.219850  Uiso  0.001267
    Ce1  Ce4+  1.0000  0.676450  0.270580  0.219850  Uiso  0.001267
    Ce1  Ce4+  1.0000  0.947030  0.270580  0.219850  Uiso  0.001267
    Ce1  Ce4+  1.0000  0.135290  0.541160  0.219850  Uiso  0.001267
    Ce1  Ce4+  1.0000  0.405870  0.541160  0.219850  Uiso  0.001267
    Ce1  Ce4+  1.0000  0.676450  0.541160  0.219850  Uiso  0.001267
    Ce1  Ce4+  1.0000  0.947030  0.541160  0.219850  Uiso  0.001267
    Ce1  Ce4+  1.0000  0.135290  0.811740  0.219850  Uiso  0.001267
    Ce1  Ce4+  1.0000  0.405870  0.811740  0.219850  Uiso  0.001267
    Ce1  Ce4+  1.0000  0.676450  0.811740  0.219850  Uiso  0.001267
    Ce1  Ce4+  1.0000  0.947030  0.811740  0.219850  Uiso  0.001267
    Ce1  Ce4+  1.0000  0.135290  0.000000  0.253670  Uiso  0.001267
    Ce1  Ce4+  1.0000  0.405870  0.000000  0.253670  Uiso  0.001267
    Ce1  Ce4+  1.0000  0.676450  0.000000  0.253670  Uiso  0.001267
    Ce1  Ce4+  1.0000  0.947030  0.000000  0.253670  Uiso  0.001267
    Ce1  Ce4+  1.0000  0.135290  0.270580  0.253670  Uiso  0.001267
    Ce1  Ce4+  1.0000  0.405870  0.270580  0.253670  Uiso  0.001267
    Ce1  Ce4+  1.0000  0.676450  0.270580  0.253670  Uiso  0.001267
    Ce1  Ce4+  1.0000  0.947030  0.270580  0.253670  Uiso  0.001267
    Ce1  Ce4+  1.0000  0.135290  0.541160  0.253670  Uiso  0.001267
    Ce1  Ce4+  1.0000  0.405870  0.541160  0.253670  Uiso  0.001267
    Ce1  Ce4+  1.0000  0.676450  0.541160  0.253670  Uiso  0.001267
    Ce1  Ce4+  1.0000  0.947030  0.541160  0.253670  Uiso  0.001267
    Ce1  Ce4+  1.0000  0.135290  0.811740  0.253670  Uiso  0.001267
    Ce1  Ce4+  1.0000  0.405870  0.811740  0.253670  Uiso  0.001267
    Ce1  Ce4+  1.0000  0.676450  0.811740  0.253670  Uiso  0.001267
    Ce1  Ce4+  1.0000  0.947030  0.811740  0.253670  Uiso  0.001267
    Ce1  Ce4+  1.0000  0.135290  0.000000  0.287490  Uiso  0.001267
    Ce1  Ce4+  1.0000  0.405870  0.000000  0.287490  Uiso  0.001267
    Ce1  Ce4+  1.0000  0.676450  0.000000  0.287490  Uiso  0.001267
    Ce1  Ce4+  1.0000  0.947030  0.000000  0.287490  Uiso  0.001267
    Ce1  Ce4+  1.0000  0.135290  0.270580  0.287490  Uiso  0.001267
    Ce1  Ce4+  1.0000  0.405870  0.270580  0.287490  Uiso  0.001267
    Ce1  Ce4+  1.0000  0.676450  0.270580  0.287490  Uiso  0.001267
    Ce1  Ce4+  1.0000  0.947030  0.270580  0.287490  Uiso  0.001267
    Ce1  Ce4+  1.0000  0.135290  0.541160  0.287490  Uiso  0.001267
    Ce1  Ce4+  1.0000  0.405870  0.541160  0.287490  Uiso  0.001267
    Ce1  Ce4+  1.0000  0.676450  0.541160  0.287490  Uiso  0.001267
    Ce1  Ce4+  1.0000  0.947030  0.541160  0.287490  Uiso  0.001267
    Ce1  Ce4+  1.0000  0.135290  0.811740  0.287490  Uiso  0.001267
    Ce1  Ce4+  1.0000  0.405870  0.811740  0.287490  Uiso  0.001267
    Ce1  Ce4+  1.0000  0.676450  0.811740  0.287490  Uiso  0.001267
    Ce1  Ce4+  1.0000  0.947030  0.811740  0.287490  Uiso  0.001267
    Ce1  Ce4+  1.0000  0.135290  0.000000  0.321310  Uiso  0.001267
    Ce1  Ce4+  1.0000  0.405870  0.000000  0.321310  Uiso  0.001267
    Ce1  Ce4+  1.0000  0.676450  0.000000  0.321310  Uiso  0.001267
    Ce1  Ce4+  1.0000  0.947030  0.000000  0.321310  Uiso  0.001267
    Ce1  Ce4+  1.0000  0.135290  0.270580  0.321310  Uiso  0.001267
    Ce1  Ce4+  1.0000  0.405870  0.270580  0.321310  Uiso  0.001267
    Ce1  Ce4+  1.0000  0.676450  0.270580  0.321310  Uiso  0.001267
    Ce1  Ce4+  1.0000  0.947030  0.270580  0.321310  Uiso  0.001267
    Ce1  Ce4+  1.0000  0.135290  0.541160  0.321310  Uiso  0.001267
    Ce1  Ce4+  1.0000  0.405870  0.541160  0.321310  Uiso  0.001267
    Ce1  Ce4+  1.0000  0.676450  0.541160  0.321310  Uiso  0.001267
    Ce1  Ce4+  1.0000  0.947030  0.541160  0.321310  Uiso  0.001267
    Ce1  Ce4+  1.0000  0.135290  0.811740  0.321310  Uiso  0.001267
    Ce1  Ce4+  1.0000  0.405870  0.811740  0.321310  Uiso  0.001267
    Ce1  Ce4+  1.0000  0.676450  0.811740  0.321310  Uiso  0.001267
    Ce1  Ce4+  1.0000  0.947030  0.811740  0.321310  Uiso  0.001267
    Ce1  Ce4+  1.0000  0.135290  0.000000  0.355140  Uiso  0.001267
    Ce1  Ce4+  1.0000  0.405870  0.000000  0.355140  Uiso  0.001267
    Ce1  Ce4+  1.0000  0.676450  0.000000  0.355140  Uiso  0.001267
    Ce1  Ce4+  1.0000  0.947030  0.000000  0.355140  Uiso  0.001267
    Ce1  Ce4+  1.0000  0.135290  0.270580  0.355140  Uiso  0.001267
    Ce1  Ce4+  1.0000  0.405870  0.270580  0.355140  Uiso  0.001267
    Ce1  Ce4+  1.0000  0.676450  0.270580  0.355140  Uiso  0.001267
    Ce1  Ce4+  1.0000  0.947030  0.270580  0.355140  Uiso  0.001267
    Ce1  Ce4+  1.0000  0.135290  0.541160  0.355140  Uiso  0.001267
    Ce1  Ce4+  1.0000  0.405870  0.541160  0.355140  Uiso  0.001267
    Ce1  Ce4+  1.0000  0.676450  0.541160  0.355140  Uiso  0.001267
    Ce1  Ce4+  1.0000  0.947030  0.541160  0.355140  Uiso  0.001267
    Ce1  Ce4+  1.0000  0.135290  0.811740  0.355140  Uiso  0.001267
    Ce1  Ce4+  1.0000  0.405870  0.811740  0.355140  Uiso  0.001267
    Ce1  Ce4+  1.0000  0.676450  0.811740  0.355140  Uiso  0.001267
    Ce1  Ce4+  1.0000  0.947030  0.811740  0.355140  Uiso  0.001267
    Ce1  Ce4+  1.0000  0.135290  0.000000  0.388960  Uiso  0.001267
    Ce1  Ce4+  1.0000  0.405870  0.000000  0.388960  Uiso  0.001267
    Ce1  Ce4+  1.0000  0.676450  0.000000  0.388960  Uiso  0.001267
    Ce1  Ce4+  1.0000  0.947030  0.000000  0.388960  Uiso  0.001267
    Ce1  Ce4+  1.0000  0.135290  0.270580  0.388960  Uiso  0.001267
    Ce1  Ce4+  1.0000  0.405870  0.270580  0.388960  Uiso  0.001267
    Ce1  Ce4+  1.0000  0.676450  0.270580  0.388960  Uiso  0.001267
    Ce1  Ce4+  1.0000  0.947030  0.270580  0.388960  Uiso  0.001267
    Ce1  Ce4+  1.0000  0.135290  0.541160  0.388960  Uiso  0.001267
    Ce1  Ce4+  1.0000  0.405870  0.541160  0.388960  Uiso  0.001267
    Ce1  Ce4+  1.0000  0.676450  0.541160  0.388960  Uiso  0.001267
    Ce1  Ce4+  1.0000  0.947030  0.541160  0.388960  Uiso  0.001267
    Ce1  Ce4+  1.0000  0.135290  0.811740  0.388960  Uiso  0.001267
    Ce1  Ce4+  1.0000  0.405870  0.811740  0.388960  Uiso  0.001267
    Ce1  Ce4+  1.0000  0.676450  0.811740  0.388960  Uiso  0.001267
    Ce1  Ce4+  1.0000  0.947030  0.811740  0.388960  Uiso  0.001267
    Ce1  Ce4+  1.0000  0.135290  0.000000  0.422780  Uiso  0.001267
    Ce1  Ce4+  1.0000  0.405870  0.000000  0.422780  Uiso  0.001267
    Ce1  Ce4+  1.0000  0.676450  0.000000  0.422780  Uiso  0.001267
    Ce1  Ce4+  1.0000  0.947030  0.000000  0.422780  Uiso  0.001267
    Ce1  Ce4+  1.0000  0.135290  0.270580  0.422780  Uiso  0.001267
    Ce1  Ce4+  1.0000  0.405870  0.270580  0.422780  Uiso  0.001267
    Ce1  Ce4+  1.0000  0.676450  0.270580  0.422780  Uiso  0.001267
    Ce1  Ce4+  1.0000  0.947030  0.270580  0.422780  Uiso  0.001267
    Ce1  Ce4+  1.0000  0.135290  0.541160  0.422780  Uiso  0.001267
    Ce1  Ce4+  1.0000  0.405870  0.541160  0.422780  Uiso  0.001267
    Ce1  Ce4+  1.0000  0.676450  0.541160  0.422780  Uiso  0.001267
    Ce1  Ce4+  1.0000  0.947030  0.541160  0.422780  Uiso  0.001267
    Ce1  Ce4+  1.0000  0.135290  0.811740  0.422780  Uiso  0.001267
    Ce1  Ce4+  1.0000  0.405870  0.811740  0.422780  Uiso  0.001267
    Ce1  Ce4+  1.0000  0.676450  0.811740  0.422780  Uiso  0.001267
    Ce1  Ce4+  1.0000  0.947030  0.811740  0.422780  Uiso  0.001267
    Ce1  Ce4+  1.0000  0.135290  0.000000  0.456600  Uiso  0.001267
    Ce1  Ce4+  1.0000  0.405870  0.000000  0.456600  Uiso  0.001267
    Ce1  Ce4+  1.0000  0.676450  0.000000  0.456600  Uiso  0.001267
    Ce1  Ce4+  1.0000  0.947030  0.000000  0.456600  Uiso  0.001267
    Ce1  Ce4+  1.0000  0.135290  0.270580  0.456600  Uiso  0.001267
    Ce1  Ce4+  1.0000  0.405870  0.270580  0.456600  Uiso  0.001267
    Ce1  Ce4+  1.0000  0.676450  0.270580  0.456600  Uiso  0.001267
    Ce1  Ce4+  1.0000  0.947030  0.270580  0.456600  Uiso  0.001267
    Ce1  Ce4+  1.0000  0.135290  0.541160  0.456600  Uiso  0.001267
    Ce1  Ce4+  1.0000  0.405870  0.541160  0.456600  Uiso  0.001267
    Ce1  Ce4+  1.0000  0.676450  0.541160  0.456600  Uiso  0.001267
    Ce1  Ce4+  1.0000  0.947030  0.541160  0.456600  Uiso  0.001267
    Ce1  Ce4+  1.0000  0.135290  0.811740  0.456600  Uiso  0.001267
    Ce1  Ce4+  1.0000  0.405870  0.811740  0.456600  Uiso  0.001267
    Ce1  Ce4+  1.0000  0.676450  0.811740  0.456600  Uiso  0.001267
    Ce1  Ce4+  1.0000  0.947030  0.811740  0.456600  Uiso  0.001267
    Ce1  Ce4+  1.0000  0.135290  0.000000  0.490430  Uiso  0.001267
    Ce1  Ce4+  1.0000  0.405870  0.000000  0.490430  Uiso  0.001267
    Ce1  Ce4+  1.0000  0.676450  0.000000  0.490430  Uiso  0.001267
    Ce1  Ce4+  1.0000  0.947030  0.000000  0.490430  Uiso  0.001267
    Ce1  Ce4+  1.0000  0.135290  0.270580  0.490430  Uiso  0.001267
    Ce1  Ce4+  1.0000  0.405870  0.270580  0.490430  Uiso  0.001267
    Ce1  Ce4+  1.0000  0.676450  0.270580  0.490430  Uiso  0.001267
    Ce1  Ce4+  1.0000  0.947030  0.270580  0.490430  Uiso  0.001267
    Ce1  Ce4+  1.0000  0.135290  0.541160  0.490430  Uiso  0.001267
    Ce1  Ce4+  1.0000  0.405870  0.541160  0.490430  Uiso  0.001267
    Ce1  Ce4+  1.0000  0.676450  0.541160  0.490430  Uiso  0.001267
    Ce1  Ce4+  1.0000  0.947030  0.541160  0.490430  Uiso  0.001267
    Ce1  Ce4+  1.0000  0.135290  0.811740  0.490430  Uiso  0.001267
    Ce1  Ce4+  1.0000  0.405870  0.811740  0.490430  Uiso  0.001267
    Ce1  Ce4+  1.0000  0.676450  0.811740  0.490430  Uiso  0.001267
    Ce1  Ce4+  1.0000  0.947030  0.811740  0.490430  Uiso  0.001267
    Ce1  Ce4+  1.0000  0.135290  0.000000  0.524250  Uiso  0.001267
    Ce1  Ce4+  1.0000  0.405870  0.000000  0.524250  Uiso  0.001267
    Ce1  Ce4+  1.0000  0.676450  0.000000  0.524250  Uiso  0.001267
    Ce1  Ce4+  1.0000  0.947030  0.000000  0.524250  Uiso  0.001267
    Ce1  Ce4+  1.0000  0.135290  0.270580  0.524250  Uiso  0.001267
    Ce1  Ce4+  1.0000  0.405870  0.270580  0.524250  Uiso  0.001267
    Ce1  Ce4+  1.0000  0.676450  0.270580  0.524250  Uiso  0.001267
    Ce1  Ce4+  1.0000  0.947030  0.270580  0.524250  Uiso  0.001267
    Ce1  Ce4+  1.0000  0.135290  0.541160  0.524250  Uiso  0.001267
    Ce1  Ce4+  1.0000  0.405870  0.541160  0.524250  Uiso  0.001267
    Ce1  Ce4+  1.0000  0.676450  0.541160  0.524250  Uiso  0.001267
    Ce1  Ce4+  1.0000  0.947030  0.541160  0.524250  Uiso  0.001267
    Ce1  Ce4+  1.0000  0.135290  0.811740  0.524250  Uiso  0.001267
    Ce1  Ce4+  1.0000  0.405870  0.811740  0.524250  Uiso  0.001267
    Ce1  Ce4+  1.0000  0.676450  0.811740  0.524250  Uiso  0.001267
    Ce1  Ce4+  1.0000  0.947030  0.811740  0.524250  Uiso  0.001267
    Ce1  Ce4+  1.0000  0.135290  0.000000  0.558070  Uiso  0.001267
    Ce1  Ce4+  1.0000  0.405870  0.000000  0.558070  Uiso  0.001267
    Ce1  Ce4+  1.0000  0.676450  0.000000  0.558070  Uiso  0.001267
    Ce1  Ce4+  1.0000  0.947030  0.000000  0.558070  Uiso  0.001267
    Ce1  Ce4+  1.0000  0.135290  0.270580  0.558070  Uiso  0.001267
    Ce1  Ce4+  1.0000  0.405870  0.270580  0.558070  Uiso  0.001267
    Ce1  Ce4+  1.0000  0.676450  0.270580  0.558070  Uiso  0.001267
    Ce1  Ce4+  1.0000  0.947030  0.270580  0.558070  Uiso  0.001267
    Ce1  Ce4+  1.0000  0.135290  0.541160  0.558070  Uiso  0.001267
    Ce1  Ce4+  1.0000  0.405870  0.541160  0.558070  Uiso  0.001267
    Ce1  Ce4+  1.0000  0.676450  0.541160  0.558070  Uiso  0.001267
    Ce1  Ce4+  1.0000  0.947030  0.541160  0.558070  Uiso  0.001267
    Ce1  Ce4+  1.0000  0.135290  0.811740  0.558070  Uiso  0.001267
    Ce1  Ce4+  1.0000  0.405870  0.811740  0.558070  Uiso  0.001267
    Ce1  Ce4+  1.0000  0.676450  0.811740  0.558070  Uiso  0.001267
    Ce1  Ce4+  1.0000  0.947030  0.811740  0.558070  Uiso  0.001267
    Ce1  Ce4+  1.0000  0.135290  0.000000  0.591890  Uiso  0.001267
    Ce1  Ce4+  1.0000  0.405870  0.000000  0.591890  Uiso  0.001267
    Ce1  Ce4+  1.0000  0.676450  0.000000  0.591890  Uiso  0.001267
    Ce1  Ce4+  1.0000  0.947030  0.000000  0.591890  Uiso  0.001267
    Ce1  Ce4+  1.0000  0.135290  0.270580  0.591890  Uiso  0.001267
    Ce1  Ce4+  1.0000  0.405870  0.270580  0.591890  Uiso  0.001267
    Ce1  Ce4+  1.0000  0.676450  0.270580  0.591890  Uiso  0.001267
    Ce1  Ce4+  1.0000  0.947030  0.270580  0.591890  Uiso  0.001267
    Ce1  Ce4+  1.0000  0.135290  0.541160  0.591890  Uiso  0.001267
    Ce1  Ce4+  1.0000  0.405870  0.541160  0.591890  Uiso  0.001267
    Ce1  Ce4+  1.0000  0.676450  0.541160  0.591890  Uiso  0.001267
    Ce1  Ce4+  1.0000  0.947030  0.541160  0.591890  Uiso  0.001267
    Ce1  Ce4+  1.0000  0.135290  0.811740  0.591890  Uiso  0.001267
    Ce1  Ce4+  1.0000  0.405870  0.811740  0.591890  Uiso  0.001267
    Ce1  Ce4+  1.0000  0.676450  0.811740  0.591890  Uiso  0.001267
    Ce1  Ce4+  1.0000  0.947030  0.811740  0.591890  Uiso  0.001267
    Ce1  Ce4+  1.0000  0.135290  0.000000  0.625720  Uiso  0.001267
    Ce1  Ce4+  1.0000  0.405870  0.000000  0.625720  Uiso  0.001267
    Ce1  Ce4+  1.0000  0.676450  0.000000  0.625720  Uiso  0.001267
    Ce1  Ce4+  1.0000  0.947030  0.000000  0.625720  Uiso  0.001267
    Ce1  Ce4+  1.0000  0.135290  0.270580  0.625720  Uiso  0.001267
    Ce1  Ce4+  1.0000  0.405870  0.270580  0.625720  Uiso  0.001267
    Ce1  Ce4+  1.0000  0.676450  0.270580  0.625720  Uiso  0.001267
    Ce1  Ce4+  1.0000  0.947030  0.270580  0.625720  Uiso  0.001267
    Ce1  Ce4+  1.0000  0.135290  0.541160  0.625720  Uiso  0.001267
    Ce1  Ce4+  1.0000  0.405870  0.541160  0.625720  Uiso  0.001267
    Ce1  Ce4+  1.0000  0.676450  0.541160  0.625720  Uiso  0.001267
    Ce1  Ce4+  1.0000  0.947030  0.541160  0.625720  Uiso  0.001267
    Ce1  Ce4+  1.0000  0.135290  0.811740  0.625720  Uiso  0.001267
    Ce1  Ce4+  1.0000  0.405870  0.811740  0.625720  Uiso  0.001267
    Ce1  Ce4+  1.0000  0.676450  0.811740  0.625720  Uiso  0.001267
    Ce1  Ce4+  1.0000  0.947030  0.811740  0.625720  Uiso  0.001267
    Ce1  Ce4+  1.0000  0.135290  0.000000  0.659540  Uiso  0.001267
    Ce1  Ce4+  1.0000  0.405870  0.000000  0.659540  Uiso  0.001267
    Ce1  Ce4+  1.0000  0.676450  0.000000  0.659540  Uiso  0.001267
    Ce1  Ce4+  1.0000  0.947030  0.000000  0.659540  Uiso  0.001267
    Ce1  Ce4+  1.0000  0.135290  0.270580  0.659540  Uiso  0.001267
    Ce1  Ce4+  1.0000  0.405870  0.270580  0.659540  Uiso  0.001267
    Ce1  Ce4+  1.0000  0.676450  0.270580  0.659540  Uiso  0.001267
    Ce1  Ce4+  1.0000  0.947030  0.270580  0.659540  Uiso  0.001267
    Ce1  Ce4+  1.0000  0.135290  0.541160  0.659540  Uiso  0.001267
    Ce1  Ce4+  1.0000  0.405870  0.541160  0.659540  Uiso  0.001267
    Ce1  Ce4+  1.0000  0.676450  0.541160  0.659540  Uiso  0.001267
    Ce1  Ce4+  1.0000  0.947030  0.541160  0.659540  Uiso  0.001267
    Ce1  Ce4+  1.0000  0.135290  0.811740  0.659540  Uiso  0.001267
    Ce1  Ce4+  1.0000  0.405870  0.811740  0.659540  Uiso  0.001267
    Ce1  Ce4+  1.0000  0.676450  0.811740  0.659540  Uiso  0.001267
    Ce1  Ce4+  1.0000  0.947030  0.811740  0.659540  Uiso  0.001267
    Ce1  Ce4+  1.0000  0.135290  0.000000  0.693360  Uiso  0.001267
    Ce1  Ce4+  1.0000  0.405870  0.000000  0.693360  Uiso  0.001267
    Ce1  Ce4+  1.0000  0.676450  0.000000  0.693360  Uiso  0.001267
    Ce1  Ce4+  1.0000  0.947030  0.000000  0.693360  Uiso  0.001267
    Ce1  Ce4+  1.0000  0.135290  0.270580  0.693360  Uiso  0.001267
    Ce1  Ce4+  1.0000  0.405870  0.270580  0.693360  Uiso  0.001267
    Ce1  Ce4+  1.0000  0.676450  0.270580  0.693360  Uiso  0.001267
    Ce1  Ce4+  1.0000  0.947030  0.270580  0.693360  Uiso  0.001267
    Ce1  Ce4+  1.0000  0.135290  0.541160  0.693360  Uiso  0.001267
    Ce1  Ce4+  1.0000  0.405870  0.541160  0.693360  Uiso  0.001267
    Ce1  Ce4+  1.0000  0.676450  0.541160  0.693360  Uiso  0.001267
    Ce1  Ce4+  1.0000  0.947030  0.541160  0.693360  Uiso  0.001267
    Ce1  Ce4+  1.0000  0.135290  0.811740  0.693360  Uiso  0.001267
    Ce1  Ce4+  1.0000  0.405870  0.811740  0.693360  Uiso  0.001267
    Ce1  Ce4+  1.0000  0.676450  0.811740  0.693360  Uiso  0.001267
    Ce1  Ce4+  1.0000  0.947030  0.811740  0.693360  Uiso  0.001267
    Ce1  Ce4+  1.0000  0.135290  0.000000  0.727180  Uiso  0.001267
    Ce1  Ce4+  1.0000  0.405870  0.000000  0.727180  Uiso  0.001267
    Ce1  Ce4+  1.0000  0.676450  0.000000  0.727180  Uiso  0.001267
    Ce1  Ce4+  1.0000  0.947030  0.000000  0.727180  Uiso  0.001267
    Ce1  Ce4+  1.0000  0.135290  0.270580  0.727180  Uiso  0.001267
    Ce1  Ce4+  1.0000  0.405870  0.270580  0.727180  Uiso  0.001267
    Ce1  Ce4+  1.0000  0.676450  0.270580  0.727180  Uiso  0.001267
    Ce1  Ce4+  1.0000  0.947030  0.270580  0.727180  Uiso  0.001267
    Ce1  Ce4+  1.0000  0.135290  0.541160  0.727180  Uiso  0.001267
    Ce1  Ce4+  1.0000  0.405870  0.541160  0.727180  Uiso  0.001267
    Ce1  Ce4+  1.0000  0.676450  0.541160  0.727180  Uiso  0.001267
    Ce1  Ce4+  1.0000  0.947030  0.541160  0.727180  Uiso  0.001267
    Ce1  Ce4+  1.0000  0.135290  0.811740  0.727180  Uiso  0.001267
    Ce1  Ce4+  1.0000  0.405870  0.811740  0.727180  Uiso  0.001267
    Ce1  Ce4+  1.0000  0.676450  0.811740  0.727180  Uiso  0.001267
    Ce1  Ce4+  1.0000  0.947030  0.811740  0.727180  Uiso  0.001267
    Ce1  Ce4+  1.0000  0.135290  0.000000  0.761010  Uiso  0.001267
    Ce1  Ce4+  1.0000  0.405870  0.000000  0.761010  Uiso  0.001267
    Ce1  Ce4+  1.0000  0.676450  0.000000  0.761010  Uiso  0.001267
    Ce1  Ce4+  1.0000  0.947030  0.000000  0.761010  Uiso  0.001267
    Ce1  Ce4+  1.0000  0.135290  0.270580  0.761010  Uiso  0.001267
    Ce1  Ce4+  1.0000  0.405870  0.270580  0.761010  Uiso  0.001267
    Ce1  Ce4+  1.0000  0.676450  0.270580  0.761010  Uiso  0.001267
    Ce1  Ce4+  1.0000  0.947030  0.270580  0.761010  Uiso  0.001267
    Ce1  Ce4+  1.0000  0.135290  0.541160  0.761010  Uiso  0.001267
    Ce1  Ce4+  1.0000  0.405870  0.541160  0.761010  Uiso  0.001267
    Ce1  Ce4+  1.0000  0.676450  0.541160  0.761010  Uiso  0.001267
    Ce1  Ce4+  1.0000  0.947030  0.541160  0.761010  Uiso  0.001267
    Ce1  Ce4+  1.0000  0.135290  0.811740  0.761010  Uiso  0.001267
    Ce1  Ce4+  1.0000  0.405870  0.811740  0.761010  Uiso  0.001267
    Ce1  Ce4+  1.0000  0.676450  0.811740  0.761010  Uiso  0.001267
    Ce1  Ce4+  1.0000  0.947030  0.811740  0.761010  Uiso  0.001267
    Ce1  Ce4+  1.0000  0.135290  0.000000  0.794830  Uiso  0.001267
    Ce1  Ce4+  1.0000  0.405870  0.000000  0.794830  Uiso  0.001267
    Ce1  Ce4+  1.0000  0.676450  0.000000  0.794830  Uiso  0.001267
    Ce1  Ce4+  1.0000  0.947030  0.000000  0.794830  Uiso  0.001267
    Ce1  Ce4+  1.0000  0.135290  0.270580  0.794830  Uiso  0.001267
    Ce1  Ce4+  1.0000  0.405870  0.270580  0.794830  Uiso  0.001267
    Ce1  Ce4+  1.0000  0.676450  0.270580  0.794830  Uiso  0.001267
    Ce1  Ce4+  1.0000  0.947030  0.270580  0.794830  Uiso  0.001267
    Ce1  Ce4+  1.0000  0.135290  0.541160  0.794830  Uiso  0.001267
    Ce1  Ce4+  1.0000  0.405870  0.541160  0.794830  Uiso  0.001267
    Ce1  Ce4+  1.0000  0.676450  0.541160  0.794830  Uiso  0.001267
    Ce1  Ce4+  1.0000  0.947030  0.541160  0.794830  Uiso  0.001267
    Ce1  Ce4+  1.0000  0.135290  0.811740  0.794830  Uiso  0.001267
    Ce1  Ce4+  1.0000  0.405870  0.811740  0.794830  Uiso  0.001267
    Ce1  Ce4+  1.0000  0.676450  0.811740  0.794830  Uiso  0.001267
    Ce1  Ce4+  1.0000  0.947030  0.811740  0.794830  Uiso  0.001267
    Ce1  Ce4+  1.0000  0.135290  0.000000  0.828650  Uiso  0.001267
    Ce1  Ce4+  1.0000  0.405870  0.000000  0.828650  Uiso  0.001267
    Ce1  Ce4+  1.0000  0.676450  0.000000  0.828650  Uiso  0.001267
    Ce1  Ce4+  1.0000  0.947030  0.000000  0.828650  Uiso  0.001267
    Ce1  Ce4+  1.0000  0.135290  0.270580  0.828650  Uiso  0.001267
    Ce1  Ce4+  1.0000  0.405870  0.270580  0.828650  Uiso  0.001267
    Ce1  Ce4+  1.0000  0.676450  0.270580  0.828650  Uiso  0.001267
    Ce1  Ce4+  1.0000  0.947030  0.270580  0.828650  Uiso  0.001267
    Ce1  Ce4+  1.0000  0.135290  0.541160  0.828650  Uiso  0.001267
    Ce1  Ce4+  1.0000  0.405870  0.541160  0.828650  Uiso  0.001267
    Ce1  Ce4+  1.0000  0.676450  0.541160  0.828650  Uiso  0.001267
    Ce1  Ce4+  1.0000  0.947030  0.541160  0.828650  Uiso  0.001267
    Ce1  Ce4+  1.0000  0.135290  0.811740  0.828650  Uiso  0.001267
    Ce1  Ce4+  1.0000  0.405870  0.811740  0.828650  Uiso  0.001267
    Ce1  Ce4+  1.0000  0.676450  0.811740  0.828650  Uiso  0.001267
    Ce1  Ce4+  1.0000  0.947030  0.811740  0.828650  Uiso  0.001267
    Ce1  Ce4+  1.0000  0.135290  0.000000  0.862470  Uiso  0.001267
    Ce1  Ce4+  1.0000  0.405870  0.000000  0.862470  Uiso  0.001267
    Ce1  Ce4+  1.0000  0.676450  0.000000  0.862470  Uiso  0.001267
    Ce1  Ce4+  1.0000  0.947030  0.000000  0.862470  Uiso  0.001267
    Ce1  Ce4+  1.0000  0.135290  0.270580  0.862470  Uiso  0.001267
    Ce1  Ce4+  1.0000  0.405870  0.270580  0.862470  Uiso  0.001267
    Ce1  Ce4+  1.0000  0.676450  0.270580  0.862470  Uiso  0.001267
    Ce1  Ce4+  1.0000  0.947030  0.270580  0.862470  Uiso  0.001267
    Ce1  Ce4+  1.0000  0.135290  0.541160  0.862470  Uiso  0.001267
    Ce1  Ce4+  1.0000  0.405870  0.541160  0.862470  Uiso  0.001267
    Ce1  Ce4+  1.0000  0.676450  0.541160  0.862470  Uiso  0.001267
    Ce1  Ce4+  1.0000  0.947030  0.541160  0.862470  Uiso  0.001267
    Ce1  Ce4+  1.0000  0.135290  0.811740  0.862470  Uiso  0.001267
    Ce1  Ce4+  1.0000  0.405870  0.811740  0.862470  Uiso  0.001267
    Ce1  Ce4+  1.0000  0.676450  0.811740  0.862470  Uiso  0.001267
    Ce1  Ce4+  1.0000  0.947030  0.811740  0.862470  Uiso  0.001267
    Ce1  Ce4+  1.0000  0.135290  0.000000  0.896300  Uiso  0.001267
    Ce1  Ce4+  1.0000  0.405870  0.000000  0.896300  Uiso  0.001267
    Ce1  Ce4+  1.0000  0.676450  0.000000  0.896300  Uiso  0.001267
    Ce1  Ce4+  1.0000  0.947030  0.000000  0.896300  Uiso  0.001267
    Ce1  Ce4+  1.0000  0.135290  0.270580  0.896300  Uiso  0.001267
    Ce1  Ce4+  1.0000  0.405870  0.270580  0.896300  Uiso  0.001267
    Ce1  Ce4+  1.0000  0.676450  0.270580  0.896300  Uiso  0.001267
    Ce1  Ce4+  1.0000  0.947030  0.270580  0.896300  Uiso  0.001267
    Ce1  Ce4+  1.0000  0.135290  0.541160  0.896300  Uiso  0.001267
    Ce1  Ce4+  1.0000  0.405870  0.541160  0.896300  Uiso  0.001267
    Ce1  Ce4+  1.0000  0.676450  0.541160  0.896300  Uiso  0.001267
    Ce1  Ce4+  1.0000  0.947030  0.541160  0.896300  Uiso  0.001267
    Ce1  Ce4+  1.0000  0.135290  0.811740  0.896300  Uiso  0.001267
    Ce1  Ce4+  1.0000  0.405870  0.811740  0.896300  Uiso  0.001267
    Ce1  Ce4+  1.0000  0.676450  0.811740  0.896300  Uiso  0.001267
    Ce1  Ce4+  1.0000  0.947030  0.811740  0.896300  Uiso  0.001267
    Ce1  Ce4+  1.0000  0.135290  0.000000  0.930120  Uiso  0.001267
    Ce1  Ce4+  1.0000  0.405870  0.000000  0.930120  Uiso  0.001267
    Ce1  Ce4+  1.0000  0.676450  0.000000  0.930120  Uiso  0.001267
    Ce1  Ce4+  1.0000  0.947030  0.000000  0.930120  Uiso  0.001267
    Ce1  Ce4+  1.0000  0.135290  0.270580  0.930120  Uiso  0.001267
    Ce1  Ce4+  1.0000  0.405870  0.270580  0.930120  Uiso  0.001267
    Ce1  Ce4+  1.0000  0.676450  0.270580  0.930120  Uiso  0.001267
    Ce1  Ce4+  1.0000  0.947030  0.270580  0.930120  Uiso  0.001267
    Ce1  Ce4+  1.0000  0.135290  0.541160  0.930120  Uiso  0.001267
    Ce1  Ce4+  1.0000  0.405870  0.541160  0.930120  Uiso  0.001267
    Ce1  Ce4+  1.0000  0.676450  0.541160  0.930120  Uiso  0.001267
    Ce1  Ce4+  1.0000  0.947030  0.541160  0.930120  Uiso  0.001267
    Ce1  Ce4+  1.0000  0.135290  0.811740  0.930120  Uiso  0.001267
    Ce1  Ce4+  1.0000  0.405870  0.811740  0.930120  Uiso  0.001267
    Ce1  Ce4+  1.0000  0.676450  0.811740  0.930120  Uiso  0.001267
    Ce1  Ce4+  1.0000  0.947030  0.811740  0.930120  Uiso  0.001267
    Ce1  Ce4+  1.0000  0.135290  0.000000  0.963940  Uiso  0.001267
    Ce1  Ce4+  1.0000  0.405870  0.000000  0.963940  Uiso  0.001267
    Ce1  Ce4+  1.0000  0.676450  0.000000  0.963940  Uiso  0.001267
    Ce1  Ce4+  1.0000  0.947030  0.000000  0.963940  Uiso  0.001267
    Ce1  Ce4+  1.0000  0.135290  0.270580  0.963940  Uiso  0.001267
    Ce1  Ce4+  1.0000  0.405870  0.270580  0.963940  Uiso  0.001267
    Ce1  Ce4+  1.0000  0.676450  0.270580  0.963940  Uiso  0.001267
    Ce1  Ce4+  1.0000  0.947030  0.270580  0.963940  Uiso  0.001267
    Ce1  Ce4+  1.0000  0.135290  0.541160  0.963940  Uiso  0.001267
    Ce1  Ce4+  1.0000  0.405870  0.541160  0.963940  Uiso  0.001267
    Ce1  Ce4+  1.0000  0.676450  0.541160  0.963940  Uiso  0.001267
    Ce1  Ce4+  1.0000  0.947030  0.541160  0.963940  Uiso  0.001267
    Ce1  Ce4+  1.0000  0.135290  0.811740  0.963940  Uiso  0.001267
    Ce1  Ce4+  1.0000  0.405870  0.811740  0.963940  Uiso  0.001267
    Ce1  Ce4+  1.0000  0.676450  0.811740  0.963940  Uiso  0.001267
    Ce1  Ce4+  1.0000  0.947030  0.811740  0.963940  Uiso  0.001267
    Ce1  Ce4+  1.0000  0.135290  0.000000  0.997760  Uiso  0.001267
    Ce1  Ce4+  1.0000  0.405870  0.000000  0.997760  Uiso  0.001267
    Ce1  Ce4+  1.0000  0.676450  0.000000  0.997760  Uiso  0.001267
    Ce1  Ce4+  1.0000  0.947030  0.000000  0.997760  Uiso  0.001267
    Ce1  Ce4+  1.0000  0.135290  0.270580  0.997760  Uiso  0.001267
    Ce1  Ce4+  1.0000  0.405870  0.270580  0.997760  Uiso  0.001267
    Ce1  Ce4+  1.0000  0.676450  0.270580  0.997760  Uiso  0.001267
    Ce1  Ce4+  1.0000  0.947030  0.270580  0.997760  Uiso  0.001267
    Ce1  Ce4+  1.0000  0.135290  0.541160  0.997760  Uiso  0.001267
    Ce1  Ce4+  1.0000  0.405870  0.541160  0.997760  Uiso  0.001267
    Ce1  Ce4+  1.0000  0.676450  0.541160  0.997760  Uiso  0.001267
    Ce1  Ce4+  1.0000  0.947030  0.541160  0.997760  Uiso  0.001267
    Ce1  Ce4+  1.0000  0.135290  0.811740  0.997760  Uiso  0.001267
    Ce1  Ce4+  1.0000  0.405870  0.811740  0.997760  Uiso  0.001267
    Ce1  Ce4+  1.0000  0.676450  0.811740  0.997760  Uiso  0.001267
    Ce1  Ce4+  1.0000  0.947030  0.811740  0.997760  Uiso  0.001267

# End of data_CELSLC
